/*---------------------------------------------------------------------------*\
  =========                 |
  \\      /  F ield         | OpenFOAM: The Open Source CFD Toolbox
   \\    /   O peration     | Website:  https://openfoam.org
    \\  /    A nd           | Version:  13
     \\/     M anipulation  |
\*---------------------------------------------------------------------------*/
Build  : 13-441953dfbb42
Exec   : foamMultiRun -parallel
Date   : Jun 12 2026
Time   : 08:16:31
Host   : "foam"
PID    : 329960
I/O    : uncollated
Case   : /home/gaelle/OpenFOAM/hm27_ne_quarter
nProcs : 24
Slaves : 
23
(
"foam.329961"
"foam.329962"
"foam.329963"
"foam.329964"
"foam.329965"
"foam.329966"
"foam.329967"
"foam.329968"
"foam.329969"
"foam.329970"
"foam.329971"
"foam.329972"
"foam.329973"
"foam.329974"
"foam.329975"
"foam.329976"
"foam.329977"
"foam.329982"
"foam.329984"
"foam.329990"
"foam.329993"
"foam.329996"
"foam.329999"
)

Pstream initialised with:
    floatTransfer      : false
    nProcsSimpleSum    : 0
    commsType          : nonBlocking
    polling iterations : 0
sigFpe : Floating point exception trapping - not supported on this platform
fileModificationChecking : Monitoring run-time modified files using timeStampMaster (fileModificationSkew 10)
allowSystemOperations : Allowing user-supplied system call operations

// * * * * * * * * * * * * * * * * * * * * * * * * * * * * * * * * * * * * * //
Create time

Selecting solver fluid
Selecting thermodynamics package 
{
    type            heRhoThermo;
    mixture         pureMixture;
    transport       const;
    thermo          hConst;
    equationOfState rhoConst;
    specie          specie;
    energy          sensibleEnthalpy;
}

Selecting turbulence model type RAS
    Selecting RAS turbulence model kOmegaSST
No MRF models present

Selecting patchDistMethod meshWave
Creating fvConstraints from "system/fvConstraints"

Selecting finite volume constraint type limitTemperature
    Name: limitTemperature(min=280,max=400)
Selecting thermophysical transport type RAS
Selecting default RAS thermophysical transport model unityLewisEddyDiffusivity
Selecting solver solid
Selecting thermodynamics package 
{
    type            heSolidThermo;
    mixture         pureMixture;
    transport       constIsoSolid;
    thermo          eConst;
    equationOfState rhoConst;
    specie          specie;
    energy          sensibleInternalEnergy;
}

Selecting default solid thermophysical transport model isotropic
Selecting solver solid
Selecting thermodynamics package 
{
    type            heSolidThermo;
    mixture         pureMixture;
    transport       constIsoSolid;
    thermo          eConst;
    equationOfState rhoConst;
    specie          specie;
    energy          sensibleInternalEnergy;
}

Selecting default solid thermophysical transport model isotropic
Selecting solver solid
Selecting thermodynamics package 
{
    type            heSolidThermo;
    mixture         pureMixture;
    transport       constIsoSolid;
    thermo          eConst;
    equationOfState rhoConst;
    specie          specie;
    energy          sensibleInternalEnergy;
}

Selecting default solid thermophysical transport model isotropic

PIMPLE: Region fluid
PIMPLE: Convergence criteria found
        U: tolerance 0.0001
        h: tolerance 0.0001
        "(k|omega)": tolerance 0.005


PIMPLE: Region cold_plate
PIMPLE: Convergence criteria found
        e: tolerance 0.0001


PIMPLE: Region tim
PIMPLE: Convergence criteria found
        e: tolerance 0.0001


PIMPLE: Region die
PIMPLE: Convergence criteria found
        e: tolerance 0.0001


PIMPLE: Operating solver in steady-state mode with 1 outer corrector
PIMPLE: Operating solver in SIMPLE mode



Starting time loop

           Time = 1s
           
fluid      DILUPBiCGStab:  Solving for Ux, Initial residual = 1, Final residual = 0.0031803291, No Iterations 1
fluid      DILUPBiCGStab:  Solving for Uy, Initial residual = 1, Final residual = 0.0040496345, No Iterations 1
fluid      DILUPBiCGStab:  Solving for Uz, Initial residual = 1, Final residual = 0.003792547, No Iterations 1
fluid      DILUPBiCGStab:  Solving for h, Initial residual = 0.004000158, Final residual = 2.3563e-05, No Iterations 1
cold_plate DICPCG:  Solving for e, Initial residual = 0.72737299, Final residual = 5.3316769e-08, No Iterations 17
cold_plate DICPCG:  Solving for e, Initial residual = 0.32762375, Final residual = 5.4880672e-08, No Iterations 16
tim        DICPCG:  Solving for e, Initial residual = 0.5905818, Final residual = 9.1220098e-08, No Iterations 8
tim        DICPCG:  Solving for e, Initial residual = 0.32327021, Final residual = 8.6151754e-08, No Iterations 8
die        DICPCG:  Solving for e, Initial residual = 1, Final residual = 5.7869289e-08, No Iterations 15
die        DICPCG:  Solving for e, Initial residual = 0.21956028, Final residual = 5.0430728e-08, No Iterations 13
fluid      GAMG:  Solving for p_rgh, Initial residual = 0.99744793, Final residual = 0.044347808, No Iterations 11
fluid      GAMG:  Solving for p_rgh, Initial residual = 0.30923572, Final residual = 0.0083187988, No Iterations 2
fluid      GAMG:  Solving for p_rgh, Initial residual = 0.024677823, Final residual = 0.00046678454, No Iterations 4
fluid      time step continuity errors : sum local = 678.35887, global = -2.9739666, cumulative = -2.9739666
fluid      DILUPBiCGStab:  Solving for omega, Initial residual = 0.026077181, Final residual = 3.7393649e-05, No Iterations 1
fluid      DILUPBiCGStab:  Solving for k, Initial residual = 1, Final residual = 0.0010110589, No Iterations 1
           ExecutionTime = 339.21246 s  ClockTime = 340 s
           
           Time = 2s
           
fluid      DILUPBiCGStab:  Solving for Ux, Initial residual = 0.86039579, Final residual = 0.0016120801, No Iterations 1
fluid      DILUPBiCGStab:  Solving for Uy, Initial residual = 0.74648689, Final residual = 0.0020780442, No Iterations 1
fluid      DILUPBiCGStab:  Solving for Uz, Initial residual = 0.60101851, Final residual = 0.0014347263, No Iterations 1
fluid      DILUPBiCGStab:  Solving for h, Initial residual = 0.99999994, Final residual = 0.0066494675, No Iterations 1
cold_plate DICPCG:  Solving for e, Initial residual = 1, Final residual = 4.5910643e-08, No Iterations 17
cold_plate DICPCG:  Solving for e, Initial residual = 0.35993012, Final residual = 7.2325633e-08, No Iterations 15
tim        DICPCG:  Solving for e, Initial residual = 1, Final residual = 6.4967884e-08, No Iterations 9
tim        DICPCG:  Solving for e, Initial residual = 0.09271082, Final residual = 9.2114839e-08, No Iterations 7
die        DICPCG:  Solving for e, Initial residual = 0.14810054, Final residual = 8.1563088e-08, No Iterations 12
die        DICPCG:  Solving for e, Initial residual = 0.11155492, Final residual = 4.583365e-08, No Iterations 12
fluid      GAMG:  Solving for p_rgh, Initial residual = 0.14335816, Final residual = 0.0058453867, No Iterations 8
fluid      GAMG:  Solving for p_rgh, Initial residual = 0.79035684, Final residual = 0.038381214, No Iterations 2
fluid      GAMG:  Solving for p_rgh, Initial residual = 0.28610511, Final residual = 0.014125325, No Iterations 3
fluid      time step continuity errors : sum local = 13009.285, global = 4.9145482, cumulative = 1.9405815
fluid      DILUPBiCGStab:  Solving for omega, Initial residual = 0.0021509849, Final residual = 9.8861314e-07, No Iterations 1
fluid      DILUPBiCGStab:  Solving for k, Initial residual = 0.44702885, Final residual = 0.00013659608, No Iterations 1
           ExecutionTime = 365.50524 s  ClockTime = 366 s
           
           Time = 3s
           
fluid      DILUPBiCGStab:  Solving for Ux, Initial residual = 0.20518896, Final residual = 0.00031490332, No Iterations 1
fluid      DILUPBiCGStab:  Solving for Uy, Initial residual = 0.17200648, Final residual = 0.00043618852, No Iterations 1
fluid      DILUPBiCGStab:  Solving for Uz, Initial residual = 0.18362092, Final residual = 0.00054257049, No Iterations 1
fluid      DILUPBiCGStab:  Solving for h, Initial residual = 0.47804208, Final residual = 0.0032617286, No Iterations 1
cold_plate DICPCG:  Solving for e, Initial residual = 0.29258531, Final residual = 8.1427671e-08, No Iterations 15
cold_plate DICPCG:  Solving for e, Initial residual = 0.32298442, Final residual = 7.6919259e-08, No Iterations 15
tim        DICPCG:  Solving for e, Initial residual = 0.564149, Final residual = 7.6144351e-08, No Iterations 8
tim        DICPCG:  Solving for e, Initial residual = 0.073419515, Final residual = 7.4968787e-08, No Iterations 7
die        DICPCG:  Solving for e, Initial residual = 0.094781894, Final residual = 4.1927432e-08, No Iterations 12
die        DICPCG:  Solving for e, Initial residual = 0.078180537, Final residual = 8.2475121e-08, No Iterations 11
fluid      GAMG:  Solving for p_rgh, Initial residual = 0.20811474, Final residual = 0.009491567, No Iterations 10
fluid      GAMG:  Solving for p_rgh, Initial residual = 0.28980499, Final residual = 0.0040940021, No Iterations 3
fluid      GAMG:  Solving for p_rgh, Initial residual = 0.025488594, Final residual = 0.0011229967, No Iterations 3
fluid      time step continuity errors : sum local = 2768.0185, global = -4.551289, cumulative = -2.6107075
fluid      DILUPBiCGStab:  Solving for omega, Initial residual = 0.0010588761, Final residual = 6.3396853e-07, No Iterations 1
fluid      DILUPBiCGStab:  Solving for k, Initial residual = 0.26527059, Final residual = 0.00012444217, No Iterations 1
           ExecutionTime = 392.64025 s  ClockTime = 393 s
           
           Time = 4s
           
fluid      DILUPBiCGStab:  Solving for Ux, Initial residual = 0.024006915, Final residual = 5.8830856e-05, No Iterations 1
fluid      DILUPBiCGStab:  Solving for Uy, Initial residual = 0.023707647, Final residual = 6.0830646e-05, No Iterations 1
fluid      DILUPBiCGStab:  Solving for Uz, Initial residual = 0.05102472, Final residual = 0.00011347739, No Iterations 1
fluid      DILUPBiCGStab:  Solving for h, Initial residual = 0.61981146, Final residual = 0.0049585986, No Iterations 1
cold_plate DICPCG:  Solving for e, Initial residual = 0.51050915, Final residual = 5.220069e-08, No Iterations 16
cold_plate DICPCG:  Solving for e, Initial residual = 0.5023889, Final residual = 9.0804699e-08, No Iterations 15
tim        DICPCG:  Solving for e, Initial residual = 0.33492506, Final residual = 4.6038008e-08, No Iterations 8
tim        DICPCG:  Solving for e, Initial residual = 0.055479095, Final residual = 5.8061118e-08, No Iterations 7
die        DICPCG:  Solving for e, Initial residual = 0.072905776, Final residual = 8.1911251e-08, No Iterations 11
die        DICPCG:  Solving for e, Initial residual = 0.06136681, Final residual = 5.8249088e-08, No Iterations 11
fluid      GAMG:  Solving for p_rgh, Initial residual = 0.074466601, Final residual = 0.0026628308, No Iterations 5
fluid      GAMG:  Solving for p_rgh, Initial residual = 0.047580385, Final residual = 0.0012286638, No Iterations 3
fluid      GAMG:  Solving for p_rgh, Initial residual = 0.0067887268, Final residual = 0.0003017076, No Iterations 5
fluid      time step continuity errors : sum local = 692.097, global = -1.691219, cumulative = -4.3019265
fluid      DILUPBiCGStab:  Solving for omega, Initial residual = 0.00052347233, Final residual = 4.253516e-07, No Iterations 1
fluid      DILUPBiCGStab:  Solving for k, Initial residual = 0.18303637, Final residual = 0.00012566836, No Iterations 1
           ExecutionTime = 418.81543 s  ClockTime = 420 s
           
           Time = 5s
           
fluid      DILUPBiCGStab:  Solving for Ux, Initial residual = 0.16040215, Final residual = 0.00031316495, No Iterations 1
fluid      DILUPBiCGStab:  Solving for Uy, Initial residual = 0.12983761, Final residual = 0.00035837321, No Iterations 1
fluid      DILUPBiCGStab:  Solving for Uz, Initial residual = 0.1805935, Final residual = 0.00044580937, No Iterations 1
fluid      DILUPBiCGStab:  Solving for h, Initial residual = 0.22361128, Final residual = 0.00017126557, No Iterations 1
cold_plate DICPCG:  Solving for e, Initial residual = 0.22922186, Final residual = 5.5334021e-08, No Iterations 15
cold_plate DICPCG:  Solving for e, Initial residual = 0.17672784, Final residual = 3.4372318e-08, No Iterations 15
tim        DICPCG:  Solving for e, Initial residual = 0.22140581, Final residual = 7.9657128e-08, No Iterations 7
tim        DICPCG:  Solving for e, Initial residual = 0.042374436, Final residual = 4.4969457e-08, No Iterations 7
die        DICPCG:  Solving for e, Initial residual = 0.06030361, Final residual = 6.9039676e-08, No Iterations 11
die        DICPCG:  Solving for e, Initial residual = 0.051006462, Final residual = 4.6817727e-08, No Iterations 11
fluid      GAMG:  Solving for p_rgh, Initial residual = 0.094908412, Final residual = 0.0042101864, No Iterations 7
fluid      GAMG:  Solving for p_rgh, Initial residual = 0.29728089, Final residual = 0.014144495, No Iterations 2
fluid      GAMG:  Solving for p_rgh, Initial residual = 0.054617846, Final residual = 0.0024024854, No Iterations 3
fluid      time step continuity errors : sum local = 2517.0674, global = 9.456566, cumulative = 5.1546395
fluid      DILUPBiCGStab:  Solving for omega, Initial residual = 0.00026257599, Final residual = 2.8937845e-07, No Iterations 1
fluid      DILUPBiCGStab:  Solving for k, Initial residual = 0.13676167, Final residual = 0.00012230122, No Iterations 1
           ExecutionTime = 444.40728 s  ClockTime = 445 s
           
           Time = 6s
           
fluid      DILUPBiCGStab:  Solving for Ux, Initial residual = 0.29521935, Final residual = 0.00049275667, No Iterations 1
fluid      DILUPBiCGStab:  Solving for Uy, Initial residual = 0.24831208, Final residual = 0.00072612551, No Iterations 1
fluid      DILUPBiCGStab:  Solving for Uz, Initial residual = 0.28657539, Final residual = 0.00087044651, No Iterations 1
fluid      DILUPBiCGStab:  Solving for h, Initial residual = 0.10796936, Final residual = 0.00017885351, No Iterations 1
cold_plate DICPCG:  Solving for e, Initial residual = 0.068447161, Final residual = 6.4802436e-08, No Iterations 14
cold_plate DICPCG:  Solving for e, Initial residual = 0.040343226, Final residual = 4.8098227e-08, No Iterations 14
tim        DICPCG:  Solving for e, Initial residual = 0.15918357, Final residual = 6.0581109e-08, No Iterations 7
tim        DICPCG:  Solving for e, Initial residual = 0.033257129, Final residual = 3.5502414e-08, No Iterations 7
die        DICPCG:  Solving for e, Initial residual = 0.051864574, Final residual = 6.0008805e-08, No Iterations 11
die        DICPCG:  Solving for e, Initial residual = 0.043923536, Final residual = 4.0596409e-08, No Iterations 11
fluid      GAMG:  Solving for p_rgh, Initial residual = 0.14347717, Final residual = 0.0069682463, No Iterations 9
fluid      GAMG:  Solving for p_rgh, Initial residual = 0.59565662, Final residual = 0.025153687, No Iterations 2
fluid      GAMG:  Solving for p_rgh, Initial residual = 0.092524432, Final residual = 0.0041770525, No Iterations 3
fluid      time step continuity errors : sum local = 2576.2891, global = -3.0357918, cumulative = 2.1188477
fluid      DILUPBiCGStab:  Solving for omega, Initial residual = 0.00013473958, Final residual = 2.0132293e-07, No Iterations 1
fluid      DILUPBiCGStab:  Solving for k, Initial residual = 0.10684411, Final residual = 0.00011686772, No Iterations 1
           ExecutionTime = 470.91589 s  ClockTime = 472 s
           
           Time = 7s
           
fluid      DILUPBiCGStab:  Solving for Ux, Initial residual = 0.30957061, Final residual = 0.00043143695, No Iterations 1
fluid      DILUPBiCGStab:  Solving for Uy, Initial residual = 0.26193358, Final residual = 0.00071701966, No Iterations 1
fluid      DILUPBiCGStab:  Solving for Uz, Initial residual = 0.20076663, Final residual = 0.00075404597, No Iterations 1
fluid      DILUPBiCGStab:  Solving for h, Initial residual = 0.25305664, Final residual = 0.00023438204, No Iterations 1
cold_plate DICPCG:  Solving for e, Initial residual = 0.14837776, Final residual = 4.7895521e-08, No Iterations 15
cold_plate DICPCG:  Solving for e, Initial residual = 0.14346207, Final residual = 4.595559e-08, No Iterations 15
tim        DICPCG:  Solving for e, Initial residual = 0.12146312, Final residual = 4.8233046e-08, No Iterations 7
tim        DICPCG:  Solving for e, Initial residual = 0.026830793, Final residual = 2.8658795e-08, No Iterations 7
die        DICPCG:  Solving for e, Initial residual = 0.045621851, Final residual = 5.2851359e-08, No Iterations 11
die        DICPCG:  Solving for e, Initial residual = 0.038651336, Final residual = 3.6082919e-08, No Iterations 11
fluid      GAMG:  Solving for p_rgh, Initial residual = 0.12635661, Final residual = 0.0056008536, No Iterations 11
fluid      GAMG:  Solving for p_rgh, Initial residual = 0.2339697, Final residual = 0.0096036565, No Iterations 2
fluid      GAMG:  Solving for p_rgh, Initial residual = 0.024132685, Final residual = 0.0010872227, No Iterations 3
fluid      time step continuity errors : sum local = 1284.3922, global = 2.0676754, cumulative = 4.1865231
fluid      DILUPBiCGStab:  Solving for omega, Initial residual = 7.1230197e-05, Final residual = 1.433898e-07, No Iterations 1
fluid      DILUPBiCGStab:  Solving for k, Initial residual = 0.085909036, Final residual = 0.00011448981, No Iterations 1
           ExecutionTime = 498.2818 s  ClockTime = 499 s
           
           Time = 8s
           
fluid      DILUPBiCGStab:  Solving for Ux, Initial residual = 0.13130377, Final residual = 0.0003692217, No Iterations 1
fluid      DILUPBiCGStab:  Solving for Uy, Initial residual = 0.12455222, Final residual = 0.00043701904, No Iterations 1
fluid      DILUPBiCGStab:  Solving for Uz, Initial residual = 0.093263398, Final residual = 0.00037207344, No Iterations 1
fluid      DILUPBiCGStab:  Solving for h, Initial residual = 0.34279602, Final residual = 0.00024028026, No Iterations 1
cold_plate DICPCG:  Solving for e, Initial residual = 0.20095215, Final residual = 6.7384976e-08, No Iterations 15
cold_plate DICPCG:  Solving for e, Initial residual = 0.21673701, Final residual = 7.5138429e-08, No Iterations 15
tim        DICPCG:  Solving for e, Initial residual = 0.096777629, Final residual = 3.9699392e-08, No Iterations 7
tim        DICPCG:  Solving for e, Initial residual = 0.022183232, Final residual = 2.3632419e-08, No Iterations 7
die        DICPCG:  Solving for e, Initial residual = 0.040741958, Final residual = 4.7223139e-08, No Iterations 11
die        DICPCG:  Solving for e, Initial residual = 0.034532479, Final residual = 9.9299186e-08, No Iterations 10
fluid      GAMG:  Solving for p_rgh, Initial residual = 0.068450041, Final residual = 0.002536491, No Iterations 6
fluid      GAMG:  Solving for p_rgh, Initial residual = 0.05770806, Final residual = 0.0015555473, No Iterations 3
fluid      GAMG:  Solving for p_rgh, Initial residual = 0.0088218806, Final residual = 0.00034873242, No Iterations 5
fluid      time step continuity errors : sum local = 361.15746, global = 1.0761091, cumulative = 5.2626322
fluid      DILUPBiCGStab:  Solving for omega, Initial residual = 3.8984392e-05, Final residual = 1.0302637e-07, No Iterations 1
fluid      DILUPBiCGStab:  Solving for k, Initial residual = 0.070611514, Final residual = 0.00011481408, No Iterations 1
           ExecutionTime = 524.95275 s  ClockTime = 526 s
           
           Time = 9s
           
fluid      DILUPBiCGStab:  Solving for Ux, Initial residual = 0.27779428, Final residual = 0.00055998242, No Iterations 1
fluid      DILUPBiCGStab:  Solving for Uy, Initial residual = 0.23092881, Final residual = 0.00060864841, No Iterations 1
fluid      DILUPBiCGStab:  Solving for Uz, Initial residual = 0.16019519, Final residual = 0.00048998008, No Iterations 1
fluid      DILUPBiCGStab:  Solving for h, Initial residual = 0.25165622, Final residual = 0.0001626392, No Iterations 1
cold_plate DICPCG:  Solving for e, Initial residual = 0.1698705, Final residual = 9.1347958e-08, No Iterations 15
cold_plate DICPCG:  Solving for e, Initial residual = 0.14392485, Final residual = 7.8003382e-08, No Iterations 15
tim        DICPCG:  Solving for e, Initial residual = 0.079655017, Final residual = 3.3517169e-08, No Iterations 7
tim        DICPCG:  Solving for e, Initial residual = 0.018736299, Final residual = 1.987043e-08, No Iterations 7
die        DICPCG:  Solving for e, Initial residual = 0.036783361, Final residual = 4.2691504e-08, No Iterations 11
die        DICPCG:  Solving for e, Initial residual = 0.031221359, Final residual = 9.0441303e-08, No Iterations 10
fluid      GAMG:  Solving for p_rgh, Initial residual = 0.09328921, Final residual = 0.0043242183, No Iterations 7
fluid      GAMG:  Solving for p_rgh, Initial residual = 0.31244669, Final residual = 0.004354141, No Iterations 3
fluid      GAMG:  Solving for p_rgh, Initial residual = 0.05113569, Final residual = 0.0022194819, No Iterations 3
fluid      time step continuity errors : sum local = 1009.9396, global = 1.3474628, cumulative = 6.6100949
fluid      DILUPBiCGStab:  Solving for omega, Initial residual = 2.2222737e-05, Final residual = 7.3895135e-08, No Iterations 1
fluid      DILUPBiCGStab:  Solving for k, Initial residual = 0.058961398, Final residual = 0.00011495416, No Iterations 1
           ExecutionTime = 551.34763 s  ClockTime = 553 s
           
           Time = 10s
           
fluid      DILUPBiCGStab:  Solving for Ux, Initial residual = 0.15531047, Final residual = 0.00027672534, No Iterations 1
fluid      DILUPBiCGStab:  Solving for Uy, Initial residual = 0.12431045, Final residual = 0.00027326201, No Iterations 1
fluid      DILUPBiCGStab:  Solving for Uz, Initial residual = 0.11202338, Final residual = 0.00035829046, No Iterations 1
fluid      DILUPBiCGStab:  Solving for h, Initial residual = 0.20518309, Final residual = 0.00024508, No Iterations 1
cold_plate DICPCG:  Solving for e, Initial residual = 0.11925898, Final residual = 8.7802543e-08, No Iterations 15
cold_plate DICPCG:  Solving for e, Initial residual = 0.083523577, Final residual = 6.3661641e-08, No Iterations 15
tim        DICPCG:  Solving for e, Initial residual = 0.067234852, Final residual = 2.8859988e-08, No Iterations 7
tim        DICPCG:  Solving for e, Initial residual = 0.016113954, Final residual = 1.6993716e-08, No Iterations 7
die        DICPCG:  Solving for e, Initial residual = 0.033444947, Final residual = 3.8865183e-08, No Iterations 11
die        DICPCG:  Solving for e, Initial residual = 0.02839356, Final residual = 8.2713949e-08, No Iterations 10
fluid      GAMG:  Solving for p_rgh, Initial residual = 0.15340995, Final residual = 0.0074837057, No Iterations 10
fluid      GAMG:  Solving for p_rgh, Initial residual = 0.54181624, Final residual = 0.024453135, No Iterations 2
fluid      GAMG:  Solving for p_rgh, Initial residual = 0.076737929, Final residual = 0.0018198395, No Iterations 4
fluid      time step continuity errors : sum local = 623.39467, global = 3.501212, cumulative = 10.111307
fluid      DILUPBiCGStab:  Solving for omega, Initial residual = 1.3267987e-05, Final residual = 5.2646975e-08, No Iterations 1
fluid      DILUPBiCGStab:  Solving for k, Initial residual = 0.049850465, Final residual = 0.0001156841, No Iterations 1
           ExecutionTime = 578.89084 s  ClockTime = 580 s
           
           Time = 11s
           
fluid      DILUPBiCGStab:  Solving for Ux, Initial residual = 0.050891308, Final residual = 8.6910312e-05, No Iterations 1
fluid      DILUPBiCGStab:  Solving for Uy, Initial residual = 0.040092566, Final residual = 8.4978108e-05, No Iterations 1
fluid      DILUPBiCGStab:  Solving for Uz, Initial residual = 0.04288741, Final residual = 0.00016696899, No Iterations 1
fluid      DILUPBiCGStab:  Solving for h, Initial residual = 0.33064458, Final residual = 0.00037514812, No Iterations 1
cold_plate DICPCG:  Solving for e, Initial residual = 0.1377352, Final residual = 9.4104265e-08, No Iterations 15
cold_plate DICPCG:  Solving for e, Initial residual = 0.1101733, Final residual = 7.3543226e-08, No Iterations 15
tim        DICPCG:  Solving for e, Initial residual = 0.057899141, Final residual = 2.5249106e-08, No Iterations 7
tim        DICPCG:  Solving for e, Initial residual = 0.014072418, Final residual = 1.4748744e-08, No Iterations 7
die        DICPCG:  Solving for e, Initial residual = 0.030600919, Final residual = 3.5606779e-08, No Iterations 11
die        DICPCG:  Solving for e, Initial residual = 0.025978226, Final residual = 7.6009e-08, No Iterations 10
fluid      GAMG:  Solving for p_rgh, Initial residual = 0.10872578, Final residual = 0.0049420412, No Iterations 9
fluid      GAMG:  Solving for p_rgh, Initial residual = 0.17405721, Final residual = 0.0083839878, No Iterations 2
fluid      GAMG:  Solving for p_rgh, Initial residual = 0.020812758, Final residual = 0.00065366104, No Iterations 4
fluid      time step continuity errors : sum local = 349.85005, global = 1.9591011, cumulative = 12.070408
fluid      DILUPBiCGStab:  Solving for omega, Initial residual = 8.2861809e-06, Final residual = 3.9302338e-08, No Iterations 1
fluid      DILUPBiCGStab:  Solving for k, Initial residual = 0.042622214, Final residual = 0.00011864712, No Iterations 1
           ExecutionTime = 606.08723 s  ClockTime = 608 s
           
           Time = 12s
           
fluid      DILUPBiCGStab:  Solving for Ux, Initial residual = 0.026809153, Final residual = 6.4630682e-05, No Iterations 1
fluid      DILUPBiCGStab:  Solving for Uy, Initial residual = 0.026837948, Final residual = 8.3969521e-05, No Iterations 1
fluid      DILUPBiCGStab:  Solving for Uz, Initial residual = 0.031222001, Final residual = 0.0001588924, No Iterations 1
fluid      DILUPBiCGStab:  Solving for h, Initial residual = 0.1932796, Final residual = 0.00021654991, No Iterations 1
cold_plate DICPCG:  Solving for e, Initial residual = 0.10979543, Final residual = 7.6737254e-08, No Iterations 15
cold_plate DICPCG:  Solving for e, Initial residual = 0.089648998, Final residual = 6.0668309e-08, No Iterations 15
tim        DICPCG:  Solving for e, Initial residual = 0.050674584, Final residual = 2.2381707e-08, No Iterations 7
tim        DICPCG:  Solving for e, Initial residual = 0.012449551, Final residual = 1.2963748e-08, No Iterations 7
die        DICPCG:  Solving for e, Initial residual = 0.02813325, Final residual = 3.2779451e-08, No Iterations 11
die        DICPCG:  Solving for e, Initial residual = 0.023918954, Final residual = 7.0224436e-08, No Iterations 10
fluid      GAMG:  Solving for p_rgh, Initial residual = 0.084028397, Final residual = 0.003597876, No Iterations 6
fluid      GAMG:  Solving for p_rgh, Initial residual = 0.097511578, Final residual = 0.0026285665, No Iterations 3
fluid      GAMG:  Solving for p_rgh, Initial residual = 0.017145187, Final residual = 0.00052253614, No Iterations 4
fluid      time step continuity errors : sum local = 217.19226, global = 0.0059220835, cumulative = 12.07633
fluid      DILUPBiCGStab:  Solving for omega, Initial residual = 5.3574116e-06, Final residual = 2.9129683e-08, No Iterations 1
fluid      DILUPBiCGStab:  Solving for k, Initial residual = 0.036836463, Final residual = 0.00012375646, No Iterations 1
           ExecutionTime = 632.49562 s  ClockTime = 634 s
           
           Time = 13s
           
fluid      DILUPBiCGStab:  Solving for Ux, Initial residual = 0.07340957, Final residual = 0.00013600224, No Iterations 1
fluid      DILUPBiCGStab:  Solving for Uy, Initial residual = 0.066621875, Final residual = 0.00015786989, No Iterations 1
fluid      DILUPBiCGStab:  Solving for Uz, Initial residual = 0.056988997, Final residual = 0.00013998146, No Iterations 1
fluid      DILUPBiCGStab:  Solving for h, Initial residual = 0.068042485, Final residual = 8.5884815e-05, No Iterations 1
cold_plate DICPCG:  Solving for e, Initial residual = 0.073132878, Final residual = 5.6969618e-08, No Iterations 15
cold_plate DICPCG:  Solving for e, Initial residual = 0.061229906, Final residual = 9.863835e-08, No Iterations 14
tim        DICPCG:  Solving for e, Initial residual = 0.0449438, Final residual = 2.0056726e-08, No Iterations 7
tim        DICPCG:  Solving for e, Initial residual = 0.011134952, Final residual = 1.151967e-08, No Iterations 7
die        DICPCG:  Solving for e, Initial residual = 0.026003299, Final residual = 3.033858e-08, No Iterations 11
die        DICPCG:  Solving for e, Initial residual = 0.022141593, Final residual = 6.5186597e-08, No Iterations 10
fluid      GAMG:  Solving for p_rgh, Initial residual = 0.11239304, Final residual = 0.0044397344, No Iterations 8
fluid      GAMG:  Solving for p_rgh, Initial residual = 0.40600471, Final residual = 0.017527612, No Iterations 2
fluid      GAMG:  Solving for p_rgh, Initial residual = 0.081540784, Final residual = 0.0027282629, No Iterations 4
fluid      time step continuity errors : sum local = 430.60212, global = 0.35543949, cumulative = 12.43177
fluid      DILUPBiCGStab:  Solving for omega, Initial residual = 3.5886762e-06, Final residual = 2.4140489e-08, No Iterations 1
fluid      DILUPBiCGStab:  Solving for k, Initial residual = 0.03214033, Final residual = 0.00013089576, No Iterations 1
           ExecutionTime = 659.11076 s  ClockTime = 661 s
           
           Time = 14s
           
fluid      DILUPBiCGStab:  Solving for Ux, Initial residual = 0.076868621, Final residual = 0.00012700441, No Iterations 1
fluid      DILUPBiCGStab:  Solving for Uy, Initial residual = 0.068983346, Final residual = 0.0001465299, No Iterations 1
fluid      DILUPBiCGStab:  Solving for Uz, Initial residual = 0.0491527, Final residual = 0.00013518054, No Iterations 1
fluid      DILUPBiCGStab:  Solving for h, Initial residual = 0.072160776, Final residual = 0.00013803461, No Iterations 1
cold_plate DICPCG:  Solving for e, Initial residual = 0.057125462, Final residual = 4.5763772e-08, No Iterations 15
cold_plate DICPCG:  Solving for e, Initial residual = 0.046682014, Final residual = 7.691158e-08, No Iterations 14
tim        DICPCG:  Solving for e, Initial residual = 0.040301062, Final residual = 1.8137962e-08, No Iterations 7
tim        DICPCG:  Solving for e, Initial residual = 0.010051973, Final residual = 9.3134131e-08, No Iterations 6
die        DICPCG:  Solving for e, Initial residual = 0.02414689, Final residual = 9.6162983e-08, No Iterations 10
die        DICPCG:  Solving for e, Initial residual = 0.020590772, Final residual = 6.0803099e-08, No Iterations 10
fluid      GAMG:  Solving for p_rgh, Initial residual = 0.2061382, Final residual = 0.010060664, No Iterations 9
fluid      GAMG:  Solving for p_rgh, Initial residual = 0.42764757, Final residual = 0.016357984, No Iterations 2
fluid      GAMG:  Solving for p_rgh, Initial residual = 0.044992036, Final residual = 0.0019512882, No Iterations 4
fluid      time step continuity errors : sum local = 430.84239, global = 0.8335299, cumulative = 13.2653
fluid      DILUPBiCGStab:  Solving for omega, Initial residual = 2.5079491e-06, Final residual = 1.8612212e-08, No Iterations 1
fluid      DILUPBiCGStab:  Solving for k, Initial residual = 0.028280525, Final residual = 0.00013961059, No Iterations 1
           ExecutionTime = 686.24046 s  ClockTime = 688 s
           
           Time = 15s
           
fluid      DILUPBiCGStab:  Solving for Ux, Initial residual = 0.030382603, Final residual = 5.5832628e-05, No Iterations 1
fluid      DILUPBiCGStab:  Solving for Uy, Initial residual = 0.027616703, Final residual = 7.6329143e-05, No Iterations 1
fluid      DILUPBiCGStab:  Solving for Uz, Initial residual = 0.018687226, Final residual = 7.2303725e-05, No Iterations 1
fluid      DILUPBiCGStab:  Solving for h, Initial residual = 0.10516992, Final residual = 0.00014308901, No Iterations 1
cold_plate DICPCG:  Solving for e, Initial residual = 0.056725235, Final residual = 9.8236979e-08, No Iterations 14
cold_plate DICPCG:  Solving for e, Initial residual = 0.047517895, Final residual = 7.8803245e-08, No Iterations 14
tim        DICPCG:  Solving for e, Initial residual = 0.036471288, Final residual = 1.652949e-08, No Iterations 7
tim        DICPCG:  Solving for e, Initial residual = 0.00914652, Final residual = 8.4229736e-08, No Iterations 6
die        DICPCG:  Solving for e, Initial residual = 0.022515536, Final residual = 8.9927593e-08, No Iterations 10
die        DICPCG:  Solving for e, Initial residual = 0.019225246, Final residual = 5.6887653e-08, No Iterations 10
fluid      GAMG:  Solving for p_rgh, Initial residual = 0.084183832, Final residual = 0.003775862, No Iterations 6
fluid      GAMG:  Solving for p_rgh, Initial residual = 0.10495448, Final residual = 0.0046517818, No Iterations 2
fluid      GAMG:  Solving for p_rgh, Initial residual = 0.01226835, Final residual = 0.00043364634, No Iterations 5
fluid      time step continuity errors : sum local = 119.93637, global = -0.28882177, cumulative = 12.976478
fluid      DILUPBiCGStab:  Solving for omega, Initial residual = 1.8091526e-06, Final residual = 1.481929e-08, No Iterations 1
fluid      DILUPBiCGStab:  Solving for k, Initial residual = 0.02507808, Final residual = 0.00014869679, No Iterations 1
           ExecutionTime = 712.86276 s  ClockTime = 715 s
           
           Time = 16s
           
fluid      DILUPBiCGStab:  Solving for Ux, Initial residual = 0.024779632, Final residual = 6.5303949e-05, No Iterations 1
fluid      DILUPBiCGStab:  Solving for Uy, Initial residual = 0.02458317, Final residual = 8.582837e-05, No Iterations 1
fluid      DILUPBiCGStab:  Solving for Uz, Initial residual = 0.022985002, Final residual = 9.4136008e-05, No Iterations 1
fluid      DILUPBiCGStab:  Solving for h, Initial residual = 0.089984982, Final residual = 0.00010579521, No Iterations 1
cold_plate DICPCG:  Solving for e, Initial residual = 0.049199584, Final residual = 8.6147401e-08, No Iterations 14
cold_plate DICPCG:  Solving for e, Initial residual = 0.041321128, Final residual = 6.770253e-08, No Iterations 14
tim        DICPCG:  Solving for e, Initial residual = 0.033263251, Final residual = 1.516403e-08, No Iterations 7
tim        DICPCG:  Solving for e, Initial residual = 0.0083796132, Final residual = 7.6733559e-08, No Iterations 6
die        DICPCG:  Solving for e, Initial residual = 0.02106984, Final residual = 8.4358853e-08, No Iterations 10
die        DICPCG:  Solving for e, Initial residual = 0.018013894, Final residual = 5.3400694e-08, No Iterations 10
fluid      GAMG:  Solving for p_rgh, Initial residual = 0.085165964, Final residual = 0.0035995037, No Iterations 6
fluid      GAMG:  Solving for p_rgh, Initial residual = 0.11355944, Final residual = 0.0053563288, No Iterations 2
fluid      GAMG:  Solving for p_rgh, Initial residual = 0.016090475, Final residual = 0.00062306602, No Iterations 5
fluid      time step continuity errors : sum local = 131.65823, global = 0.34076236, cumulative = 13.31724
fluid      DILUPBiCGStab:  Solving for omega, Initial residual = 1.3277824e-06, Final residual = 1.1696739e-08, No Iterations 1
fluid      DILUPBiCGStab:  Solving for k, Initial residual = 0.022393018, Final residual = 0.0001588909, No Iterations 1
           ExecutionTime = 740.25905 s  ClockTime = 742 s
           
           Time = 17s
           
fluid      DILUPBiCGStab:  Solving for Ux, Initial residual = 0.039859437, Final residual = 0.00010047969, No Iterations 1
fluid      DILUPBiCGStab:  Solving for Uy, Initial residual = 0.035850101, Final residual = 0.00011161403, No Iterations 1
fluid      DILUPBiCGStab:  Solving for Uz, Initial residual = 0.028435658, Final residual = 8.4060457e-05, No Iterations 1
fluid      DILUPBiCGStab:  Solving for h, Initial residual = 0.037225789, Final residual = 7.0458795e-05, No Iterations 1
cold_plate DICPCG:  Solving for e, Initial residual = 0.040596356, Final residual = 7.3419766e-08, No Iterations 14
cold_plate DICPCG:  Solving for e, Initial residual = 0.034205541, Final residual = 5.4686854e-08, No Iterations 14
tim        DICPCG:  Solving for e, Initial residual = 0.030540558, Final residual = 1.3992407e-08, No Iterations 7
tim        DICPCG:  Solving for e, Initial residual = 0.0077227094, Final residual = 7.034833e-08, No Iterations 6
die        DICPCG:  Solving for e, Initial residual = 0.019780335, Final residual = 7.9365832e-08, No Iterations 10
die        DICPCG:  Solving for e, Initial residual = 0.016931469, Final residual = 5.0275615e-08, No Iterations 10
fluid      GAMG:  Solving for p_rgh, Initial residual = 0.10503768, Final residual = 0.0039191251, No Iterations 7
fluid      GAMG:  Solving for p_rgh, Initial residual = 0.31428726, Final residual = 0.0086146578, No Iterations 2
fluid      GAMG:  Solving for p_rgh, Initial residual = 0.041752819, Final residual = 0.0016831934, No Iterations 5
fluid      time step continuity errors : sum local = 185.93183, global = 0.53179376, cumulative = 13.849034
fluid      DILUPBiCGStab:  Solving for omega, Initial residual = 1.0019034e-06, Final residual = 9.4707488e-09, No Iterations 1
fluid      DILUPBiCGStab:  Solving for k, Initial residual = 0.020123346, Final residual = 0.00016867804, No Iterations 1
           ExecutionTime = 769.85573 s  ClockTime = 772 s
           
           Time = 18s
           
fluid      DILUPBiCGStab:  Solving for Ux, Initial residual = 0.026988147, Final residual = 6.9428626e-05, No Iterations 1
fluid      DILUPBiCGStab:  Solving for Uy, Initial residual = 0.023000697, Final residual = 9.9740783e-05, No Iterations 1
fluid      DILUPBiCGStab:  Solving for Uz, Initial residual = 0.019260939, Final residual = 6.3179207e-05, No Iterations 1
fluid      DILUPBiCGStab:  Solving for h, Initial residual = 0.053148897, Final residual = 0.00011904937, No Iterations 1
cold_plate DICPCG:  Solving for e, Initial residual = 0.03840517, Final residual = 6.9106675e-08, No Iterations 14
cold_plate DICPCG:  Solving for e, Initial residual = 0.033092245, Final residual = 5.2809695e-08, No Iterations 14
tim        DICPCG:  Solving for e, Initial residual = 0.028203245, Final residual = 1.2977907e-08, No Iterations 7
tim        DICPCG:  Solving for e, Initial residual = 0.0071544297, Final residual = 6.4852596e-08, No Iterations 6
die        DICPCG:  Solving for e, Initial residual = 0.018623103, Final residual = 7.4866935e-08, No Iterations 10
die        DICPCG:  Solving for e, Initial residual = 0.015958164, Final residual = 4.7459219e-08, No Iterations 10
fluid      GAMG:  Solving for p_rgh, Initial residual = 0.1266952, Final residual = 0.0051688325, No Iterations 8
fluid      GAMG:  Solving for p_rgh, Initial residual = 0.31654518, Final residual = 0.0079052018, No Iterations 2
fluid      GAMG:  Solving for p_rgh, Initial residual = 0.030307197, Final residual = 0.0012854866, No Iterations 5
fluid      time step continuity errors : sum local = 144.80448, global = 0.29060475, cumulative = 14.139639
fluid      DILUPBiCGStab:  Solving for omega, Initial residual = 7.7498332e-07, Final residual = 7.6163756e-09, No Iterations 1
fluid      DILUPBiCGStab:  Solving for k, Initial residual = 0.01820265, Final residual = 0.0001777581, No Iterations 1
           ExecutionTime = 797.09835 s  ClockTime = 799 s
           
           Time = 19s
           
fluid      DILUPBiCGStab:  Solving for Ux, Initial residual = 0.0069657743, Final residual = 3.1801441e-05, No Iterations 1
fluid      DILUPBiCGStab:  Solving for Uy, Initial residual = 0.005994156, Final residual = 3.6880259e-05, No Iterations 1
fluid      DILUPBiCGStab:  Solving for Uz, Initial residual = 0.008573946, Final residual = 3.1835434e-05, No Iterations 1
fluid      DILUPBiCGStab:  Solving for h, Initial residual = 0.056000993, Final residual = 0.00011783189, No Iterations 1
cold_plate DICPCG:  Solving for e, Initial residual = 0.036265701, Final residual = 6.4295367e-08, No Iterations 14
cold_plate DICPCG:  Solving for e, Initial residual = 0.031699608, Final residual = 5.0627762e-08, No Iterations 14
tim        DICPCG:  Solving for e, Initial residual = 0.026176483, Final residual = 1.2091134e-08, No Iterations 7
tim        DICPCG:  Solving for e, Initial residual = 0.0066583805, Final residual = 6.0077939e-08, No Iterations 6
die        DICPCG:  Solving for e, Initial residual = 0.01757892, Final residual = 7.0794512e-08, No Iterations 10
die        DICPCG:  Solving for e, Initial residual = 0.015078071, Final residual = 4.4907916e-08, No Iterations 10
fluid      GAMG:  Solving for p_rgh, Initial residual = 0.0920218, Final residual = 0.002384331, No Iterations 6
fluid      GAMG:  Solving for p_rgh, Initial residual = 0.06827762, Final residual = 0.0017963671, No Iterations 2
fluid      GAMG:  Solving for p_rgh, Initial residual = 0.010256752, Final residual = 0.00044030747, No Iterations 6
fluid      time step continuity errors : sum local = 55.421607, global = 0.099354923, cumulative = 14.238994
fluid      DILUPBiCGStab:  Solving for omega, Initial residual = 6.114653e-07, Final residual = 6.3035002e-09, No Iterations 1
fluid      DILUPBiCGStab:  Solving for k, Initial residual = 0.016575362, Final residual = 2.0078598e-06, No Iterations 1
           ExecutionTime = 823.98783 s  ClockTime = 826 s
           
           Time = 20s
           
fluid      DILUPBiCGStab:  Solving for Ux, Initial residual = 0.012154156, Final residual = 6.1962807e-05, No Iterations 1
fluid      DILUPBiCGStab:  Solving for Uy, Initial residual = 0.013300188, Final residual = 9.3160216e-05, No Iterations 1
fluid      DILUPBiCGStab:  Solving for Uz, Initial residual = 0.01187192, Final residual = 6.4075359e-05, No Iterations 1
fluid      DILUPBiCGStab:  Solving for h, Initial residual = 0.039898752, Final residual = 7.8335646e-05, No Iterations 1
cold_plate DICPCG:  Solving for e, Initial residual = 0.032678055, Final residual = 5.7332918e-08, No Iterations 14
cold_plate DICPCG:  Solving for e, Initial residual = 0.028748555, Final residual = 4.5431301e-08, No Iterations 14
tim        DICPCG:  Solving for e, Initial residual = 0.024403007, Final residual = 1.1309885e-08, No Iterations 7
tim        DICPCG:  Solving for e, Initial residual = 0.0062218226, Final residual = 9.7695337e-08, No Iterations 5
die        DICPCG:  Solving for e, Initial residual = 0.016632053, Final residual = 6.7091935e-08, No Iterations 10
die        DICPCG:  Solving for e, Initial residual = 0.014278517, Final residual = 4.258664e-08, No Iterations 10
fluid      GAMG:  Solving for p_rgh, Initial residual = 0.10049849, Final residual = 0.0036206596, No Iterations 6
fluid      GAMG:  Solving for p_rgh, Initial residual = 0.15687096, Final residual = 0.0037625893, No Iterations 2
fluid      GAMG:  Solving for p_rgh, Initial residual = 0.021787235, Final residual = 0.00072390112, No Iterations 6
fluid      time step continuity errors : sum local = 66.265052, global = -0.20622603, cumulative = 14.032768
fluid      DILUPBiCGStab:  Solving for omega, Initial residual = 4.7688301e-07, Final residual = 5.1190876e-09, No Iterations 1
fluid      DILUPBiCGStab:  Solving for k, Initial residual = 0.015212329, Final residual = 1.773822e-06, No Iterations 1
           ExecutionTime = 850.72107 s  ClockTime = 853 s
           
           Time = 21s
           
fluid      DILUPBiCGStab:  Solving for Ux, Initial residual = 0.017591687, Final residual = 9.2474791e-05, No Iterations 1
fluid      DILUPBiCGStab:  Solving for Uy, Initial residual = 0.017917527, Final residual = 0.00011622031, No Iterations 1
fluid      DILUPBiCGStab:  Solving for Uz, Initial residual = 0.013258454, Final residual = 6.1986778e-05, No Iterations 1
fluid      DILUPBiCGStab:  Solving for h, Initial residual = 0.019063111, Final residual = 5.2117337e-05, No Iterations 1
cold_plate DICPCG:  Solving for e, Initial residual = 0.028918235, Final residual = 5.0734137e-08, No Iterations 14
cold_plate DICPCG:  Solving for e, Initial residual = 0.025544529, Final residual = 9.3293693e-08, No Iterations 13
tim        DICPCG:  Solving for e, Initial residual = 0.022838324, Final residual = 1.0615237e-08, No Iterations 7
tim        DICPCG:  Solving for e, Initial residual = 0.005834764, Final residual = 9.0952006e-08, No Iterations 5
die        DICPCG:  Solving for e, Initial residual = 0.015769555, Final residual = 6.3712134e-08, No Iterations 10
die        DICPCG:  Solving for e, Initial residual = 0.013549042, Final residual = 4.0465977e-08, No Iterations 10
fluid      GAMG:  Solving for p_rgh, Initial residual = 0.12369271, Final residual = 0.0045676641, No Iterations 7
fluid      GAMG:  Solving for p_rgh, Initial residual = 0.24304508, Final residual = 0.0047501369, No Iterations 2
fluid      GAMG:  Solving for p_rgh, Initial residual = 0.029542572, Final residual = 0.00096822347, No Iterations 6
fluid      time step continuity errors : sum local = 83.626257, global = -0.18140986, cumulative = 13.851358
fluid      DILUPBiCGStab:  Solving for omega, Initial residual = 3.9591204e-07, Final residual = 4.3793789e-09, No Iterations 1
fluid      DILUPBiCGStab:  Solving for k, Initial residual = 0.014032054, Final residual = 1.5451668e-06, No Iterations 1
           ExecutionTime = 877.68846 s  ClockTime = 880 s
           
           Time = 22s
           
fluid      DILUPBiCGStab:  Solving for Ux, Initial residual = 0.012197518, Final residual = 6.4979638e-05, No Iterations 1
fluid      DILUPBiCGStab:  Solving for Uy, Initial residual = 0.012327594, Final residual = 8.8946538e-05, No Iterations 1
fluid      DILUPBiCGStab:  Solving for Uz, Initial residual = 0.0095314959, Final residual = 5.1563883e-05, No Iterations 1
fluid      DILUPBiCGStab:  Solving for h, Initial residual = 0.034171676, Final residual = 8.771903e-05, No Iterations 1
cold_plate DICPCG:  Solving for e, Initial residual = 0.026328345, Final residual = 4.6173988e-08, No Iterations 14
cold_plate DICPCG:  Solving for e, Initial residual = 0.023317226, Final residual = 8.5200393e-08, No Iterations 13
tim        DICPCG:  Solving for e, Initial residual = 0.021447604, Final residual = 9.9957728e-09, No Iterations 7
tim        DICPCG:  Solving for e, Initial residual = 0.0054892607, Final residual = 8.4950617e-08, No Iterations 5
die        DICPCG:  Solving for e, Initial residual = 0.014980638, Final residual = 6.0614948e-08, No Iterations 10
die        DICPCG:  Solving for e, Initial residual = 0.012880925, Final residual = 3.8521351e-08, No Iterations 10
fluid      GAMG:  Solving for p_rgh, Initial residual = 0.082762015, Final residual = 0.0033501748, No Iterations 7
fluid      GAMG:  Solving for p_rgh, Initial residual = 0.14408864, Final residual = 0.0028386519, No Iterations 2
fluid      GAMG:  Solving for p_rgh, Initial residual = 0.019397897, Final residual = 0.00061790293, No Iterations 6
fluid      time step continuity errors : sum local = 68.185894, global = -0.095897733, cumulative = 13.75546
fluid      DILUPBiCGStab:  Solving for omega, Initial residual = 3.2696826e-07, Final residual = 3.7364073e-09, No Iterations 1
fluid      DILUPBiCGStab:  Solving for k, Initial residual = 0.01300146, Final residual = 1.3532244e-06, No Iterations 1
           ExecutionTime = 904.81891 s  ClockTime = 907 s
           
           Time = 23s
           
fluid      DILUPBiCGStab:  Solving for Ux, Initial residual = 0.003863014, Final residual = 1.6110724e-05, No Iterations 1
fluid      DILUPBiCGStab:  Solving for Uy, Initial residual = 0.0048609424, Final residual = 2.4651778e-05, No Iterations 1
fluid      DILUPBiCGStab:  Solving for Uz, Initial residual = 0.0074015538, Final residual = 3.6303819e-05, No Iterations 1
fluid      DILUPBiCGStab:  Solving for h, Initial residual = 0.035566543, Final residual = 6.5953008e-05, No Iterations 1
cold_plate DICPCG:  Solving for e, Initial residual = 0.02452185, Final residual = 9.3393079e-08, No Iterations 13
cold_plate DICPCG:  Solving for e, Initial residual = 0.021862134, Final residual = 7.9580183e-08, No Iterations 13
tim        DICPCG:  Solving for e, Initial residual = 0.020203434, Final residual = 9.4396348e-09, No Iterations 7
tim        DICPCG:  Solving for e, Initial residual = 0.0051789817, Final residual = 7.9612981e-08, No Iterations 5
die        DICPCG:  Solving for e, Initial residual = 0.014256478, Final residual = 5.7767656e-08, No Iterations 10
die        DICPCG:  Solving for e, Initial residual = 0.012266838, Final residual = 3.6732028e-08, No Iterations 10
fluid      GAMG:  Solving for p_rgh, Initial residual = 0.058104937, Final residual = 0.0014932891, No Iterations 6
fluid      GAMG:  Solving for p_rgh, Initial residual = 0.03394241, Final residual = 0.0011100232, No Iterations 2
fluid      GAMG:  Solving for p_rgh, Initial residual = 0.015863671, Final residual = 0.00043784651, No Iterations 3
fluid      time step continuity errors : sum local = 48.896034, global = 0.22309289, cumulative = 13.978553
fluid      DILUPBiCGStab:  Solving for omega, Initial residual = 3.0534635e-07, Final residual = 3.3880471e-09, No Iterations 1
fluid      DILUPBiCGStab:  Solving for k, Initial residual = 0.012092746, Final residual = 1.1942155e-06, No Iterations 1
           ExecutionTime = 930.01216 s  ClockTime = 933 s
           
           Time = 24s
           
fluid      DILUPBiCGStab:  Solving for Ux, Initial residual = 0.007115098, Final residual = 4.3337009e-05, No Iterations 1
fluid      DILUPBiCGStab:  Solving for Uy, Initial residual = 0.0082058894, Final residual = 6.744705e-05, No Iterations 1
fluid      DILUPBiCGStab:  Solving for Uz, Initial residual = 0.0097231213, Final residual = 5.3562641e-05, No Iterations 1
fluid      DILUPBiCGStab:  Solving for h, Initial residual = 0.027122382, Final residual = 0.00010799515, No Iterations 1
cold_plate DICPCG:  Solving for e, Initial residual = 0.022851315, Final residual = 8.698201e-08, No Iterations 13
cold_plate DICPCG:  Solving for e, Initial residual = 0.020509767, Final residual = 7.4235827e-08, No Iterations 13
tim        DICPCG:  Solving for e, Initial residual = 0.019083903, Final residual = 8.9373354e-09, No Iterations 7
tim        DICPCG:  Solving for e, Initial residual = 0.0048988381, Final residual = 7.483523e-08, No Iterations 5
die        DICPCG:  Solving for e, Initial residual = 0.01358957, Final residual = 5.514193e-08, No Iterations 10
die        DICPCG:  Solving for e, Initial residual = 0.011700552, Final residual = 3.5080437e-08, No Iterations 10
fluid      GAMG:  Solving for p_rgh, Initial residual = 0.06439043, Final residual = 0.0016762061, No Iterations 7
fluid      GAMG:  Solving for p_rgh, Initial residual = 0.091809971, Final residual = 0.0018385658, No Iterations 2
fluid      GAMG:  Solving for p_rgh, Initial residual = 0.023577458, Final residual = 0.0010686852, No Iterations 2
fluid      time step continuity errors : sum local = 103.97078, global = 0.899117, cumulative = 14.87767
fluid      DILUPBiCGStab:  Solving for omega, Initial residual = 2.5838441e-07, Final residual = 3.0439153e-09, No Iterations 1
fluid      DILUPBiCGStab:  Solving for k, Initial residual = 0.011288569, Final residual = 1.082779e-06, No Iterations 1
           ExecutionTime = 955.13318 s  ClockTime = 958 s
           
           Time = 25s
           
fluid      DILUPBiCGStab:  Solving for Ux, Initial residual = 0.0088491923, Final residual = 4.8370878e-05, No Iterations 1
fluid      DILUPBiCGStab:  Solving for Uy, Initial residual = 0.010044618, Final residual = 6.3442657e-05, No Iterations 1
fluid      DILUPBiCGStab:  Solving for Uz, Initial residual = 0.010741614, Final residual = 5.4134005e-05, No Iterations 1
fluid      DILUPBiCGStab:  Solving for h, Initial residual = 0.018449964, Final residual = 6.5526749e-05, No Iterations 1
cold_plate DICPCG:  Solving for e, Initial residual = 0.021613139, Final residual = 8.1676058e-08, No Iterations 13
cold_plate DICPCG:  Solving for e, Initial residual = 0.019510939, Final residual = 7.016692e-08, No Iterations 13
tim        DICPCG:  Solving for e, Initial residual = 0.0180713, Final residual = 8.4814584e-09, No Iterations 7
tim        DICPCG:  Solving for e, Initial residual = 0.0046446897, Final residual = 7.0534513e-08, No Iterations 5
die        DICPCG:  Solving for e, Initial residual = 0.01297351, Final residual = 5.2713541e-08, No Iterations 10
die        DICPCG:  Solving for e, Initial residual = 0.011176724, Final residual = 3.3551307e-08, No Iterations 10
fluid      GAMG:  Solving for p_rgh, Initial residual = 0.066906663, Final residual = 0.0029443071, No Iterations 7
fluid      GAMG:  Solving for p_rgh, Initial residual = 0.13570463, Final residual = 0.0030846582, No Iterations 2
fluid      GAMG:  Solving for p_rgh, Initial residual = 0.038904566, Final residual = 0.0012602914, No Iterations 3
fluid      time step continuity errors : sum local = 105.4275, global = 0.81643872, cumulative = 15.694109
fluid      DILUPBiCGStab:  Solving for omega, Initial residual = 2.8418028e-07, Final residual = 3.1143438e-09, No Iterations 1
fluid      DILUPBiCGStab:  Solving for k, Initial residual = 0.010573869, Final residual = 1.0087095e-06, No Iterations 1
           ExecutionTime = 981.6544 s  ClockTime = 985 s
           
           Time = 26s
           
fluid      DILUPBiCGStab:  Solving for Ux, Initial residual = 0.0060937758, Final residual = 3.6855811e-05, No Iterations 1
fluid      DILUPBiCGStab:  Solving for Uy, Initial residual = 0.0081111598, Final residual = 6.8172676e-05, No Iterations 1
fluid      DILUPBiCGStab:  Solving for Uz, Initial residual = 0.01168337, Final residual = 6.257745e-05, No Iterations 1
fluid      DILUPBiCGStab:  Solving for h, Initial residual = 0.027578128, Final residual = 0.00014223902, No Iterations 1
cold_plate DICPCG:  Solving for e, Initial residual = 0.020634952, Final residual = 7.7576218e-08, No Iterations 13
cold_plate DICPCG:  Solving for e, Initial residual = 0.018717535, Final residual = 6.7057233e-08, No Iterations 13
tim        DICPCG:  Solving for e, Initial residual = 0.017151116, Final residual = 8.0658933e-09, No Iterations 7
tim        DICPCG:  Solving for e, Initial residual = 0.0044131169, Final residual = 6.6643968e-08, No Iterations 5
die        DICPCG:  Solving for e, Initial residual = 0.012402758, Final residual = 5.0461268e-08, No Iterations 10
die        DICPCG:  Solving for e, Initial residual = 0.010690835, Final residual = 3.2131619e-08, No Iterations 10
fluid      GAMG:  Solving for p_rgh, Initial residual = 0.055983506, Final residual = 0.0014860319, No Iterations 8
fluid      GAMG:  Solving for p_rgh, Initial residual = 0.10461743, Final residual = 0.0022210537, No Iterations 2
fluid      GAMG:  Solving for p_rgh, Initial residual = 0.03786578, Final residual = 0.0014507312, No Iterations 2
fluid      time step continuity errors : sum local = 114.5448, global = 0.52996297, cumulative = 16.224072
fluid      DILUPBiCGStab:  Solving for omega, Initial residual = 2.404356e-07, Final residual = 2.8400386e-09, No Iterations 1
fluid      DILUPBiCGStab:  Solving for k, Initial residual = 0.009933331, Final residual = 9.6526767e-07, No Iterations 1
           ExecutionTime = 1006.98 s  ClockTime = 1010 s
           
           Time = 27s
           
fluid      DILUPBiCGStab:  Solving for Ux, Initial residual = 0.0050217237, Final residual = 2.0477574e-05, No Iterations 1
fluid      DILUPBiCGStab:  Solving for Uy, Initial residual = 0.0095176636, Final residual = 4.8403081e-05, No Iterations 1
fluid      DILUPBiCGStab:  Solving for Uz, Initial residual = 0.013931951, Final residual = 6.613571e-05, No Iterations 1
fluid      DILUPBiCGStab:  Solving for h, Initial residual = 0.040803947, Final residual = 0.00012958606, No Iterations 1
cold_plate DICPCG:  Solving for e, Initial residual = 0.019580907, Final residual = 7.3353259e-08, No Iterations 13
cold_plate DICPCG:  Solving for e, Initial residual = 0.017833003, Final residual = 6.358608e-08, No Iterations 13
tim        DICPCG:  Solving for e, Initial residual = 0.016311345, Final residual = 7.6855623e-09, No Iterations 7
tim        DICPCG:  Solving for e, Initial residual = 0.0042012629, Final residual = 6.3108587e-08, No Iterations 5
die        DICPCG:  Solving for e, Initial residual = 0.011872546, Final residual = 4.8366768e-08, No Iterations 10
die        DICPCG:  Solving for e, Initial residual = 0.010238976, Final residual = 3.0810278e-08, No Iterations 10
fluid      GAMG:  Solving for p_rgh, Initial residual = 0.071634628, Final residual = 0.0031158161, No Iterations 4
fluid      GAMG:  Solving for p_rgh, Initial residual = 0.056422653, Final residual = 0.002114259, No Iterations 3
fluid      GAMG:  Solving for p_rgh, Initial residual = 0.055213867, Final residual = 0.0018236291, No Iterations 3
fluid      time step continuity errors : sum local = 145.70553, global = -2.630906, cumulative = 13.593165
fluid      DILUPBiCGStab:  Solving for omega, Initial residual = 3.2861831e-07, Final residual = 3.6618442e-09, No Iterations 1
fluid      DILUPBiCGStab:  Solving for k, Initial residual = 0.0093552588, Final residual = 9.4331095e-07, No Iterations 1
           ExecutionTime = 1032.2531 s  ClockTime = 1036 s
           
           Time = 28s
           
fluid      DILUPBiCGStab:  Solving for Ux, Initial residual = 0.0072067741, Final residual = 5.125869e-05, No Iterations 1
fluid      DILUPBiCGStab:  Solving for Uy, Initial residual = 0.014384524, Final residual = 0.00012530417, No Iterations 1
fluid      DILUPBiCGStab:  Solving for Uz, Initial residual = 0.022493721, Final residual = 0.00011319054, No Iterations 1
fluid      DILUPBiCGStab:  Solving for h, Initial residual = 0.073322059, Final residual = 0.000382544, No Iterations 1
cold_plate DICPCG:  Solving for e, Initial residual = 0.01850095, Final residual = 6.9080071e-08, No Iterations 13
cold_plate DICPCG:  Solving for e, Initial residual = 0.016906789, Final residual = 5.9991667e-08, No Iterations 13
tim        DICPCG:  Solving for e, Initial residual = 0.015541921, Final residual = 7.336182e-09, No Iterations 7
tim        DICPCG:  Solving for e, Initial residual = 0.0040067228, Final residual = 5.9882444e-08, No Iterations 5
die        DICPCG:  Solving for e, Initial residual = 0.011378783, Final residual = 4.6414281e-08, No Iterations 10
die        DICPCG:  Solving for e, Initial residual = 0.0098177155, Final residual = 2.9577406e-08, No Iterations 10
fluid      GAMG:  Solving for p_rgh, Initial residual = 0.079251298, Final residual = 0.0025899613, No Iterations 7
fluid      GAMG:  Solving for p_rgh, Initial residual = 0.095431639, Final residual = 0.0023851828, No Iterations 2
fluid      GAMG:  Solving for p_rgh, Initial residual = 0.049762461, Final residual = 0.0018325959, No Iterations 2
fluid      time step continuity errors : sum local = 150.81593, global = -0.64337116, cumulative = 12.949794
fluid      DILUPBiCGStab:  Solving for omega, Initial residual = 2.5741179e-07, Final residual = 3.0948628e-09, No Iterations 1
fluid      DILUPBiCGStab:  Solving for k, Initial residual = 0.0088296018, Final residual = 9.4476502e-07, No Iterations 1
           ExecutionTime = 1057.8036 s  ClockTime = 1062 s
           
           Time = 29s
           
fluid      DILUPBiCGStab:  Solving for Ux, Initial residual = 0.010531325, Final residual = 4.2876085e-05, No Iterations 1
fluid      DILUPBiCGStab:  Solving for Uy, Initial residual = 0.021725027, Final residual = 0.00010232871, No Iterations 1
fluid      DILUPBiCGStab:  Solving for Uz, Initial residual = 0.027488272, Final residual = 0.00013015067, No Iterations 1
fluid      DILUPBiCGStab:  Solving for h, Initial residual = 0.1167304, Final residual = 0.00028782988, No Iterations 1
cold_plate DICPCG:  Solving for e, Initial residual = 0.017472284, Final residual = 6.5022478e-08, No Iterations 13
cold_plate DICPCG:  Solving for e, Initial residual = 0.016015782, Final residual = 5.6532493e-08, No Iterations 13
tim        DICPCG:  Solving for e, Initial residual = 0.014834363, Final residual = 7.0141009e-09, No Iterations 7
tim        DICPCG:  Solving for e, Initial residual = 0.0038274624, Final residual = 5.692736e-08, No Iterations 5
die        DICPCG:  Solving for e, Initial residual = 0.010917859, Final residual = 4.4590008e-08, No Iterations 10
die        DICPCG:  Solving for e, Initial residual = 0.0094241027, Final residual = 2.8424565e-08, No Iterations 10
fluid      GAMG:  Solving for p_rgh, Initial residual = 0.091997183, Final residual = 0.0045774537, No Iterations 7
fluid      GAMG:  Solving for p_rgh, Initial residual = 0.12492262, Final residual = 0.0038857135, No Iterations 2
fluid      GAMG:  Solving for p_rgh, Initial residual = 0.083063245, Final residual = 0.0032187124, No Iterations 2
fluid      time step continuity errors : sum local = 295.32035, global = -0.95767458, cumulative = 11.99212
fluid      DILUPBiCGStab:  Solving for omega, Initial residual = 4.6467254e-07, Final residual = 5.7964603e-09, No Iterations 1
fluid      DILUPBiCGStab:  Solving for k, Initial residual = 0.0083456788, Final residual = 9.7770905e-07, No Iterations 1
           ExecutionTime = 1083.0675 s  ClockTime = 1087 s
           
           Time = 30s
           
fluid      DILUPBiCGStab:  Solving for Ux, Initial residual = 0.011736961, Final residual = 9.9283714e-05, No Iterations 1
fluid      DILUPBiCGStab:  Solving for Uy, Initial residual = 0.029186045, Final residual = 0.00024235175, No Iterations 1
fluid      DILUPBiCGStab:  Solving for Uz, Initial residual = 0.049924992, Final residual = 0.00024853444, No Iterations 1
fluid      DILUPBiCGStab:  Solving for h, Initial residual = 0.22060163, Final residual = 0.0010981896, No Iterations 1
cold_plate DICPCG:  Solving for e, Initial residual = 0.016591275, Final residual = 6.1356689e-08, No Iterations 13
cold_plate DICPCG:  Solving for e, Initial residual = 0.015251983, Final residual = 5.3603854e-08, No Iterations 13
tim        DICPCG:  Solving for e, Initial residual = 0.014181501, Final residual = 6.7162413e-09, No Iterations 7
tim        DICPCG:  Solving for e, Initial residual = 0.0036617508, Final residual = 5.4211021e-08, No Iterations 5
die        DICPCG:  Solving for e, Initial residual = 0.010486686, Final residual = 4.2881912e-08, No Iterations 10
die        DICPCG:  Solving for e, Initial residual = 0.0090555529, Final residual = 2.7344321e-08, No Iterations 10
fluid      GAMG:  Solving for p_rgh, Initial residual = 0.068707082, Final residual = 0.0027708741, No Iterations 7
fluid      GAMG:  Solving for p_rgh, Initial residual = 0.086020255, Final residual = 0.0025771961, No Iterations 2
fluid      GAMG:  Solving for p_rgh, Initial residual = 0.060498484, Final residual = 0.002258929, No Iterations 2
fluid      time step continuity errors : sum local = 214.46316, global = -0.58630961, cumulative = 11.40581
fluid      DILUPBiCGStab:  Solving for omega, Initial residual = 3.1183297e-07, Final residual = 3.7319721e-09, No Iterations 1
fluid      DILUPBiCGStab:  Solving for k, Initial residual = 0.0078963377, Final residual = 1.0238479e-06, No Iterations 1
           ExecutionTime = 1108.5914 s  ClockTime = 1113 s
           
           Time = 31s
           
fluid      DILUPBiCGStab:  Solving for Ux, Initial residual = 0.017070117, Final residual = 5.5617538e-05, No Iterations 1
fluid      DILUPBiCGStab:  Solving for Uy, Initial residual = 0.040541607, Final residual = 0.00016821965, No Iterations 1
fluid      DILUPBiCGStab:  Solving for Uz, Initial residual = 0.053108633, Final residual = 0.0002702587, No Iterations 1
fluid      DILUPBiCGStab:  Solving for h, Initial residual = 0.27264913, Final residual = 0.00060193773, No Iterations 1
cold_plate DICPCG:  Solving for e, Initial residual = 0.015846389, Final residual = 5.7685256e-08, No Iterations 13
cold_plate DICPCG:  Solving for e, Initial residual = 0.014608181, Final residual = 5.0893367e-08, No Iterations 13
tim        DICPCG:  Solving for e, Initial residual = 0.013577262, Final residual = 6.4399799e-09, No Iterations 7
tim        DICPCG:  Solving for e, Initial residual = 0.0035081202, Final residual = 5.1706146e-08, No Iterations 5
die        DICPCG:  Solving for e, Initial residual = 0.01008252, Final residual = 4.1279431e-08, No Iterations 10
die        DICPCG:  Solving for e, Initial residual = 0.0087098005, Final residual = 9.8022244e-08, No Iterations 9
fluid      GAMG:  Solving for p_rgh, Initial residual = 0.11692085, Final residual = 0.0056736144, No Iterations 2
fluid      GAMG:  Solving for p_rgh, Initial residual = 0.12442524, Final residual = 0.0047773164, No Iterations 2
fluid      GAMG:  Solving for p_rgh, Initial residual = 0.14334935, Final residual = 0.005345253, No Iterations 2
fluid      time step continuity errors : sum local = 554.449, global = 4.4417724, cumulative = 15.847583
fluid      DILUPBiCGStab:  Solving for omega, Initial residual = 7.734262e-07, Final residual = 1.2431099e-08, No Iterations 1
fluid      DILUPBiCGStab:  Solving for k, Initial residual = 0.0074800758, Final residual = 1.0904058e-06, No Iterations 1
           ExecutionTime = 1132.0336 s  ClockTime = 1136 s
           
           Time = 32s
           
fluid      DILUPBiCGStab:  Solving for Ux, Initial residual = 0.029132699, Final residual = 0.00027698666, No Iterations 1
fluid      DILUPBiCGStab:  Solving for Uy, Initial residual = 0.065999017, Final residual = 0.00054564486, No Iterations 1
fluid      DILUPBiCGStab:  Solving for Uz, Initial residual = 0.10641656, Final residual = 0.00057969033, No Iterations 1
fluid      DILUPBiCGStab:  Solving for h, Initial residual = 0.37006854, Final residual = 0.0019675636, No Iterations 1
cold_plate DICPCG:  Solving for e, Initial residual = 0.015190496, Final residual = 5.4891546e-08, No Iterations 13
cold_plate DICPCG:  Solving for e, Initial residual = 0.01404161, Final residual = 4.8704247e-08, No Iterations 13
tim        DICPCG:  Solving for e, Initial residual = 0.013016449, Final residual = 6.1830541e-09, No Iterations 7
tim        DICPCG:  Solving for e, Initial residual = 0.0033653079, Final residual = 4.9389679e-08, No Iterations 5
die        DICPCG:  Solving for e, Initial residual = 0.0097029665, Final residual = 3.9711192e-08, No Iterations 10
die        DICPCG:  Solving for e, Initial residual = 0.0083848467, Final residual = 9.4439779e-08, No Iterations 9
fluid      GAMG:  Solving for p_rgh, Initial residual = 0.09255667, Final residual = 0.0045597569, No Iterations 3
fluid      GAMG:  Solving for p_rgh, Initial residual = 0.084345578, Final residual = 0.00362277, No Iterations 3
fluid      GAMG:  Solving for p_rgh, Initial residual = 0.084245955, Final residual = 0.0030433428, No Iterations 3
fluid      time step continuity errors : sum local = 300.0954, global = 11.119123, cumulative = 26.966705
fluid      DILUPBiCGStab:  Solving for omega, Initial residual = 3.923467e-07, Final residual = 5.0937195e-09, No Iterations 1
fluid      DILUPBiCGStab:  Solving for k, Initial residual = 0.0070883631, Final residual = 1.0807257e-06, No Iterations 1
           ExecutionTime = 1157.0426 s  ClockTime = 1161 s
           
           Time = 33s
           
fluid      DILUPBiCGStab:  Solving for Ux, Initial residual = 0.036192777, Final residual = 0.00011388568, No Iterations 1
fluid      DILUPBiCGStab:  Solving for Uy, Initial residual = 0.075072744, Final residual = 0.00031409667, No Iterations 1
fluid      DILUPBiCGStab:  Solving for Uz, Initial residual = 0.095773023, Final residual = 0.00041878768, No Iterations 1
fluid      DILUPBiCGStab:  Solving for h, Initial residual = 0.40062693, Final residual = 0.00085146732, No Iterations 1
cold_plate DICPCG:  Solving for e, Initial residual = 0.014596271, Final residual = 5.2138067e-08, No Iterations 13
cold_plate DICPCG:  Solving for e, Initial residual = 0.013526609, Final residual = 4.6584858e-08, No Iterations 13
tim        DICPCG:  Solving for e, Initial residual = 0.012494607, Final residual = 5.9435385e-09, No Iterations 7
tim        DICPCG:  Solving for e, Initial residual = 0.003232224, Final residual = 4.724153e-08, No Iterations 5
die        DICPCG:  Solving for e, Initial residual = 0.0093459015, Final residual = 3.8294529e-08, No Iterations 10
die        DICPCG:  Solving for e, Initial residual = 0.0080789161, Final residual = 9.1082922e-08, No Iterations 9
fluid      GAMG:  Solving for p_rgh, Initial residual = 0.14937694, Final residual = 0.0063835233, No Iterations 3
fluid      GAMG:  Solving for p_rgh, Initial residual = 0.16047173, Final residual = 0.0057402271, No Iterations 3
fluid      GAMG:  Solving for p_rgh, Initial residual = 0.18363298, Final residual = 0.0087314435, No Iterations 2
fluid      time step continuity errors : sum local = 940.10335, global = 14.291333, cumulative = 41.258038
fluid      DILUPBiCGStab:  Solving for omega, Initial residual = 1.0181776e-06, Final residual = 1.3086684e-08, No Iterations 1
fluid      DILUPBiCGStab:  Solving for k, Initial residual = 0.0067235483, Final residual = 1.284824e-06, No Iterations 1
           ExecutionTime = 1181.2377 s  ClockTime = 1185 s
           
           Time = 34s
           
fluid      DILUPBiCGStab:  Solving for Ux, Initial residual = 0.05773625, Final residual = 0.00051664486, No Iterations 1
fluid      DILUPBiCGStab:  Solving for Uy, Initial residual = 0.12053647, Final residual = 0.00085600037, No Iterations 1
fluid      DILUPBiCGStab:  Solving for Uz, Initial residual = 0.16762244, Final residual = 0.00069000277, No Iterations 1
fluid      DILUPBiCGStab:  Solving for h, Initial residual = 0.45411841, Final residual = 0.0024228589, No Iterations 1
cold_plate DICPCG:  Solving for e, Initial residual = 0.014050774, Final residual = 4.9778879e-08, No Iterations 13
cold_plate DICPCG:  Solving for e, Initial residual = 0.013050686, Final residual = 4.4709386e-08, No Iterations 13
tim        DICPCG:  Solving for e, Initial residual = 0.012007851, Final residual = 5.7197213e-09, No Iterations 7
tim        DICPCG:  Solving for e, Initial residual = 0.0031079226, Final residual = 4.5244617e-08, No Iterations 5
die        DICPCG:  Solving for e, Initial residual = 0.0090094412, Final residual = 3.6959272e-08, No Iterations 10
die        DICPCG:  Solving for e, Initial residual = 0.0077904402, Final residual = 8.7916335e-08, No Iterations 9
fluid      GAMG:  Solving for p_rgh, Initial residual = 0.12382634, Final residual = 0.0053641972, No Iterations 7
fluid      GAMG:  Solving for p_rgh, Initial residual = 0.17905207, Final residual = 0.0053529712, No Iterations 2
fluid      GAMG:  Solving for p_rgh, Initial residual = 0.13143644, Final residual = 0.0048386747, No Iterations 2
fluid      time step continuity errors : sum local = 456.65711, global = 1.0564527, cumulative = 42.31449
fluid      DILUPBiCGStab:  Solving for omega, Initial residual = 5.3453757e-07, Final residual = 5.5067317e-09, No Iterations 1
fluid      DILUPBiCGStab:  Solving for k, Initial residual = 0.006380864, Final residual = 9.2963053e-07, No Iterations 1
           ExecutionTime = 1206.487 s  ClockTime = 1211 s
           
           Time = 35s
           
fluid      DILUPBiCGStab:  Solving for Ux, Initial residual = 0.066113614, Final residual = 0.00021032233, No Iterations 1
fluid      DILUPBiCGStab:  Solving for Uy, Initial residual = 0.12053613, Final residual = 0.00048113096, No Iterations 1
fluid      DILUPBiCGStab:  Solving for Uz, Initial residual = 0.15056411, Final residual = 0.00047621152, No Iterations 1
fluid      DILUPBiCGStab:  Solving for h, Initial residual = 0.45544464, Final residual = 0.00088467353, No Iterations 1
cold_plate DICPCG:  Solving for e, Initial residual = 0.013583914, Final residual = 4.7522219e-08, No Iterations 13
cold_plate DICPCG:  Solving for e, Initial residual = 0.012645829, Final residual = 4.2994606e-08, No Iterations 13
tim        DICPCG:  Solving for e, Initial residual = 0.011552804, Final residual = 5.5101301e-09, No Iterations 7
tim        DICPCG:  Solving for e, Initial residual = 0.0029915746, Final residual = 4.3384646e-08, No Iterations 5
die        DICPCG:  Solving for e, Initial residual = 0.008691906, Final residual = 3.569821e-08, No Iterations 10
die        DICPCG:  Solving for e, Initial residual = 0.007518005, Final residual = 8.4924311e-08, No Iterations 9
fluid      GAMG:  Solving for p_rgh, Initial residual = 0.24503481, Final residual = 0.0091644005, No Iterations 2
fluid      GAMG:  Solving for p_rgh, Initial residual = 0.26498841, Final residual = 0.0087087012, No Iterations 2
fluid      GAMG:  Solving for p_rgh, Initial residual = 0.29690457, Final residual = 0.0098220316, No Iterations 2
fluid      time step continuity errors : sum local = 1133.2191, global = -3.6035392, cumulative = 38.710951
fluid      DILUPBiCGStab:  Solving for omega, Initial residual = 1.3305145e-06, Final residual = 1.5860336e-08, No Iterations 1
fluid      DILUPBiCGStab:  Solving for k, Initial residual = 0.0060622518, Final residual = 1.4137677e-06, No Iterations 1
           ExecutionTime = 1230.0831 s  ClockTime = 1234 s
           
           Time = 36s
           
fluid      DILUPBiCGStab:  Solving for Ux, Initial residual = 0.11996778, Final residual = 0.00078198844, No Iterations 1
fluid      DILUPBiCGStab:  Solving for Uy, Initial residual = 0.24555365, Final residual = 0.0010738609, No Iterations 1
fluid      DILUPBiCGStab:  Solving for Uz, Initial residual = 0.30738856, Final residual = 0.0011684109, No Iterations 1
fluid      DILUPBiCGStab:  Solving for h, Initial residual = 0.48339039, Final residual = 0.0022548054, No Iterations 1
cold_plate DICPCG:  Solving for e, Initial residual = 0.01306319, Final residual = 4.4900252e-08, No Iterations 13
cold_plate DICPCG:  Solving for e, Initial residual = 0.012183427, Final residual = 9.8596363e-08, No Iterations 12
tim        DICPCG:  Solving for e, Initial residual = 0.011126517, Final residual = 5.3134613e-09, No Iterations 7
tim        DICPCG:  Solving for e, Initial residual = 0.0028824519, Final residual = 4.1651457e-08, No Iterations 5
die        DICPCG:  Solving for e, Initial residual = 0.0083917896, Final residual = 3.4505425e-08, No Iterations 10
die        DICPCG:  Solving for e, Initial residual = 0.0072603485, Final residual = 8.2093204e-08, No Iterations 9
fluid      GAMG:  Solving for p_rgh, Initial residual = 0.18040015, Final residual = 0.0059482093, No Iterations 3
fluid      GAMG:  Solving for p_rgh, Initial residual = 0.16927612, Final residual = 0.0080630019, No Iterations 2
fluid      GAMG:  Solving for p_rgh, Initial residual = 0.16998855, Final residual = 0.0083728841, No Iterations 2
fluid      time step continuity errors : sum local = 855.59391, global = -13.842341, cumulative = 24.86861
fluid      DILUPBiCGStab:  Solving for omega, Initial residual = 6.6916075e-07, Final residual = 8.0713692e-09, No Iterations 1
fluid      DILUPBiCGStab:  Solving for k, Initial residual = 0.0057598395, Final residual = 1.605636e-06, No Iterations 1
           ExecutionTime = 1254.3509 s  ClockTime = 1259 s
           
           Time = 37s
           
fluid      DILUPBiCGStab:  Solving for Ux, Initial residual = 0.11629985, Final residual = 0.0003707787, No Iterations 1
fluid      DILUPBiCGStab:  Solving for Uy, Initial residual = 0.17376036, Final residual = 0.0006915067, No Iterations 1
fluid      DILUPBiCGStab:  Solving for Uz, Initial residual = 0.211788, Final residual = 0.00057802119, No Iterations 1
fluid      DILUPBiCGStab:  Solving for h, Initial residual = 0.48048077, Final residual = 0.00087972971, No Iterations 1
cold_plate DICPCG:  Solving for e, Initial residual = 0.012580779, Final residual = 9.6958824e-08, No Iterations 12
cold_plate DICPCG:  Solving for e, Initial residual = 0.011755718, Final residual = 9.4749116e-08, No Iterations 12
tim        DICPCG:  Solving for e, Initial residual = 0.010726383, Final residual = 5.1285569e-09, No Iterations 7
tim        DICPCG:  Solving for e, Initial residual = 0.0027799097, Final residual = 4.0032483e-08, No Iterations 5
die        DICPCG:  Solving for e, Initial residual = 0.0081077421, Final residual = 3.3375648e-08, No Iterations 10
die        DICPCG:  Solving for e, Initial residual = 0.0070163355, Final residual = 7.9410745e-08, No Iterations 9
fluid      GAMG:  Solving for p_rgh, Initial residual = 0.28744185, Final residual = 0.014067623, No Iterations 2
fluid      GAMG:  Solving for p_rgh, Initial residual = 0.30631492, Final residual = 0.014084953, No Iterations 2
fluid      GAMG:  Solving for p_rgh, Initial residual = 0.33822701, Final residual = 0.014833822, No Iterations 2
fluid      time step continuity errors : sum local = 1869.6526, global = -25.03759, cumulative = -0.16898009
fluid      DILUPBiCGStab:  Solving for omega, Initial residual = 2.242955e-06, Final residual = 3.5010484e-08, No Iterations 1
fluid      DILUPBiCGStab:  Solving for k, Initial residual = 0.0054810605, Final residual = 1.3756297e-06, No Iterations 1
           ExecutionTime = 1277.6463 s  ClockTime = 1282 s
           
           Time = 38s
           
fluid      DILUPBiCGStab:  Solving for Ux, Initial residual = 0.15622597, Final residual = 0.0014113915, No Iterations 1
fluid      DILUPBiCGStab:  Solving for Uy, Initial residual = 0.21580535, Final residual = 0.0015733503, No Iterations 1
fluid      DILUPBiCGStab:  Solving for Uz, Initial residual = 0.25376782, Final residual = 0.0011021525, No Iterations 1
fluid      DILUPBiCGStab:  Solving for h, Initial residual = 0.49499954, Final residual = 0.0025046129, No Iterations 1
cold_plate DICPCG:  Solving for e, Initial residual = 0.012138468, Final residual = 9.0156256e-08, No Iterations 12
cold_plate DICPCG:  Solving for e, Initial residual = 0.01136023, Final residual = 9.130134e-08, No Iterations 12
tim        DICPCG:  Solving for e, Initial residual = 0.010350094, Final residual = 4.9543869e-09, No Iterations 7
tim        DICPCG:  Solving for e, Initial residual = 0.0026833787, Final residual = 3.8516207e-08, No Iterations 5
die        DICPCG:  Solving for e, Initial residual = 0.0078385449, Final residual = 3.2304154e-08, No Iterations 10
die        DICPCG:  Solving for e, Initial residual = 0.0067849448, Final residual = 7.6865816e-08, No Iterations 9
fluid      GAMG:  Solving for p_rgh, Initial residual = 0.23943169, Final residual = 0.011745874, No Iterations 3
fluid      GAMG:  Solving for p_rgh, Initial residual = 0.23747347, Final residual = 0.0096973902, No Iterations 3
fluid      GAMG:  Solving for p_rgh, Initial residual = 0.23485785, Final residual = 0.0088340776, No Iterations 3
fluid      time step continuity errors : sum local = 1056.303, global = -24.087525, cumulative = -24.256505
fluid      DILUPBiCGStab:  Solving for omega, Initial residual = 1.1650822e-06, Final residual = 1.715495e-08, No Iterations 1
fluid      DILUPBiCGStab:  Solving for k, Initial residual = 0.0052233988, Final residual = 1.8052699e-06, No Iterations 1
           ExecutionTime = 1302.2656 s  ClockTime = 1307 s
           
           Time = 39s
           
fluid      DILUPBiCGStab:  Solving for Ux, Initial residual = 0.17191735, Final residual = 0.00053395711, No Iterations 1
fluid      DILUPBiCGStab:  Solving for Uy, Initial residual = 0.19863372, Final residual = 0.00084114319, No Iterations 1
fluid      DILUPBiCGStab:  Solving for Uz, Initial residual = 0.24317003, Final residual = 0.00066838639, No Iterations 1
fluid      DILUPBiCGStab:  Solving for h, Initial residual = 0.48092803, Final residual = 0.00088475559, No Iterations 1
cold_plate DICPCG:  Solving for e, Initial residual = 0.011708065, Final residual = 8.7571737e-08, No Iterations 12
cold_plate DICPCG:  Solving for e, Initial residual = 0.010976059, Final residual = 8.7223521e-08, No Iterations 12
[...]
tim        DICPCG:  Solving for e, Initial residual = 0.0021428807, Final residual = 9.1534811e-08, No Iterations 4
die        DICPCG:  Solving for e, Initial residual = 0.0028506697, Final residual = 5.6015331e-08, No Iterations 9
die        DICPCG:  Solving for e, Initial residual = 0.0024370714, Final residual = 3.3375585e-08, No Iterations 9
fluid      GAMG:  Solving for p_rgh, Initial residual = 0.19593532, Final residual = 0.0080192617, No Iterations 9
fluid      GAMG:  Solving for p_rgh, Initial residual = 0.15281354, Final residual = 0.0060567312, No Iterations 2
fluid      GAMG:  Solving for p_rgh, Initial residual = 0.19632999, Final residual = 0.0079187665, No Iterations 2
fluid      time step continuity errors : sum local = 8509851.8, global = -16795.236, cumulative = -347590.06
fluid      DILUPBiCGStab:  Solving for omega, Initial residual = 0.0078902068, Final residual = 8.1363741e-06, No Iterations 1
fluid      DILUPBiCGStab:  Solving for k, Initial residual = 0.033429045, Final residual = 3.9739805e-05, No Iterations 1
fluid      bounding k, min: -5.3331164e-12 max: 0.045358971 average: 5.021638e-06
           ExecutionTime = 2428.5721 s  ClockTime = 2437 s
           
           Time = 85s
           
fluid      DILUPBiCGStab:  Solving for Ux, Initial residual = 0.2298942, Final residual = 0.00060113094, No Iterations 2
fluid      DILUPBiCGStab:  Solving for Uy, Initial residual = 0.36773551, Final residual = 0.00070015087, No Iterations 2
fluid      DILUPBiCGStab:  Solving for Uz, Initial residual = 0.17849258, Final residual = 0.00064451606, No Iterations 2
fluid      DILUPBiCGStab:  Solving for h, Initial residual = 0.6278416, Final residual = 0.001392001, No Iterations 2
cold_plate DICPCG:  Solving for e, Initial residual = 0.031601352, Final residual = 5.8070218e-08, No Iterations 13
cold_plate DICPCG:  Solving for e, Initial residual = 0.026997464, Final residual = 4.1443012e-08, No Iterations 13
tim        DICPCG:  Solving for e, Initial residual = 0.0095764528, Final residual = 9.2734462e-08, No Iterations 5
tim        DICPCG:  Solving for e, Initial residual = 0.0023830034, Final residual = 4.919585e-08, No Iterations 5
die        DICPCG:  Solving for e, Initial residual = 0.0028940919, Final residual = 5.7101878e-08, No Iterations 9
die        DICPCG:  Solving for e, Initial residual = 0.0024674933, Final residual = 3.448017e-08, No Iterations 9
fluid      GAMG:  Solving for p_rgh, Initial residual = 0.32940438, Final residual = 0.014460997, No Iterations 2
fluid      GAMG:  Solving for p_rgh, Initial residual = 0.31489475, Final residual = 0.010893848, No Iterations 2
fluid      GAMG:  Solving for p_rgh, Initial residual = 0.25438523, Final residual = 0.0089801482, No Iterations 2
fluid      time step continuity errors : sum local = 45684398, global = -27149.736, cumulative = -374739.79
fluid      DILUPBiCGStab:  Solving for omega, Initial residual = 0.0093137282, Final residual = 1.4853703e-05, No Iterations 1
fluid      DILUPBiCGStab:  Solving for k, Initial residual = 0.032603699, Final residual = 3.2421294e-05, No Iterations 1
           ExecutionTime = 2453.4511 s  ClockTime = 2461 s
           
           Time = 86s
           
fluid      DILUPBiCGStab:  Solving for Ux, Initial residual = 0.38376403, Final residual = 0.0033263146, No Iterations 1
fluid      DILUPBiCGStab:  Solving for Uy, Initial residual = 0.28560224, Final residual = 0.0016244208, No Iterations 2
fluid      DILUPBiCGStab:  Solving for Uz, Initial residual = 0.30299048, Final residual = 0.0007507229, No Iterations 2
fluid      DILUPBiCGStab:  Solving for h, Initial residual = 0.37086324, Final residual = 0.00059299723, No Iterations 2
cold_plate DICPCG:  Solving for e, Initial residual = 0.024910176, Final residual = 4.5762231e-08, No Iterations 13
cold_plate DICPCG:  Solving for e, Initial residual = 0.021691464, Final residual = 8.4808547e-08, No Iterations 12
tim        DICPCG:  Solving for e, Initial residual = 0.010603305, Final residual = 9.1326578e-08, No Iterations 6
tim        DICPCG:  Solving for e, Initial residual = 0.0026407959, Final residual = 5.5664003e-08, No Iterations 5
die        DICPCG:  Solving for e, Initial residual = 0.0029530423, Final residual = 5.861667e-08, No Iterations 9
die        DICPCG:  Solving for e, Initial residual = 0.0025106072, Final residual = 3.5766215e-08, No Iterations 9
fluid      GAMG:  Solving for p_rgh, Initial residual = 0.066556094, Final residual = 0.0031330572, No Iterations 9
fluid      GAMG:  Solving for p_rgh, Initial residual = 0.039832842, Final residual = 0.0017294178, No Iterations 2
fluid      GAMG:  Solving for p_rgh, Initial residual = 0.050238683, Final residual = 0.0021212314, No Iterations 2
fluid      time step continuity errors : sum local = 11292309, global = 72099.098, cumulative = -302640.7
fluid      DILUPBiCGStab:  Solving for omega, Initial residual = 0.0085909132, Final residual = 9.4890192e-06, No Iterations 1
fluid      DILUPBiCGStab:  Solving for k, Initial residual = 0.031322155, Final residual = 3.4475698e-05, No Iterations 1
           ExecutionTime = 2480.6597 s  ClockTime = 2489 s
           
           Time = 87s
           
fluid      DILUPBiCGStab:  Solving for Ux, Initial residual = 0.22735812, Final residual = 0.0010011585, No Iterations 2
fluid      DILUPBiCGStab:  Solving for Uy, Initial residual = 0.3508982, Final residual = 0.00076124725, No Iterations 2
fluid      DILUPBiCGStab:  Solving for Uz, Initial residual = 0.17720791, Final residual = 0.0007717611, No Iterations 2
fluid      DILUPBiCGStab:  Solving for h, Initial residual = 0.57591941, Final residual = 0.00086741397, No Iterations 2
cold_plate DICPCG:  Solving for e, Initial residual = 0.029147888, Final residual = 5.042942e-08, No Iterations 13
cold_plate DICPCG:  Solving for e, Initial residual = 0.025464636, Final residual = 9.5048226e-08, No Iterations 12
tim        DICPCG:  Solving for e, Initial residual = 0.011462042, Final residual = 9.650036e-08, No Iterations 6
tim        DICPCG:  Solving for e, Initial residual = 0.0028581721, Final residual = 5.9548677e-08, No Iterations 5
die        DICPCG:  Solving for e, Initial residual = 0.003023936, Final residual = 6.0382185e-08, No Iterations 9
die        DICPCG:  Solving for e, Initial residual = 0.0025639709, Final residual = 3.7142619e-08, No Iterations 9
fluid      GAMG:  Solving for p_rgh, Initial residual = 0.077643457, Final residual = 0.0032285189, No Iterations 3
fluid      GAMG:  Solving for p_rgh, Initial residual = 0.17110026, Final residual = 0.0081975343, No Iterations 2
fluid      GAMG:  Solving for p_rgh, Initial residual = 0.066694418, Final residual = 0.002352678, No Iterations 3
fluid      time step continuity errors : sum local = 47810879, global = 315769.31, cumulative = 13128.614
fluid      DILUPBiCGStab:  Solving for omega, Initial residual = 0.0086964163, Final residual = 1.4147151e-05, No Iterations 1
fluid      DILUPBiCGStab:  Solving for k, Initial residual = 0.029926924, Final residual = 3.0758951e-05, No Iterations 1
           ExecutionTime = 2506.1026 s  ClockTime = 2514 s
           
           Time = 88s
           
fluid      DILUPBiCGStab:  Solving for Ux, Initial residual = 0.34229024, Final residual = 0.0030560913, No Iterations 1
fluid      DILUPBiCGStab:  Solving for Uy, Initial residual = 0.26387611, Final residual = 0.001528383, No Iterations 2
fluid      DILUPBiCGStab:  Solving for Uz, Initial residual = 0.25589525, Final residual = 0.0007232713, No Iterations 2
fluid      DILUPBiCGStab:  Solving for h, Initial residual = 0.39481703, Final residual = 0.00057418797, No Iterations 2
cold_plate DICPCG:  Solving for e, Initial residual = 0.036386179, Final residual = 5.3836138e-08, No Iterations 13
cold_plate DICPCG:  Solving for e, Initial residual = 0.032733852, Final residual = 4.0014894e-08, No Iterations 13
tim        DICPCG:  Solving for e, Initial residual = 0.011939827, Final residual = 2.1543767e-09, No Iterations 7
tim        DICPCG:  Solving for e, Initial residual = 0.0029731937, Final residual = 5.7899265e-08, No Iterations 5
die        DICPCG:  Solving for e, Initial residual = 0.003098601, Final residual = 6.2092443e-08, No Iterations 9
die        DICPCG:  Solving for e, Initial residual = 0.0026219321, Final residual = 3.8430146e-08, No Iterations 9
fluid      GAMG:  Solving for p_rgh, Initial residual = 0.11964369, Final residual = 0.0059819396, No Iterations 4
fluid      GAMG:  Solving for p_rgh, Initial residual = 0.047808783, Final residual = 0.0020400149, No Iterations 3
fluid      GAMG:  Solving for p_rgh, Initial residual = 0.11465961, Final residual = 0.0051738718, No Iterations 3
fluid      time step continuity errors : sum local = 19147635, global = -18757.93, cumulative = -5629.3161
fluid      DILUPBiCGStab:  Solving for omega, Initial residual = 0.0092170915, Final residual = 1.0327539e-05, No Iterations 1
fluid      DILUPBiCGStab:  Solving for k, Initial residual = 0.02934497, Final residual = 3.4904614e-05, No Iterations 1
fluid      bounding k, min: 1.976594e-16 max: 0.03767824 average: 5.2851783e-06
           ExecutionTime = 2532.5774 s  ClockTime = 2541 s
           
           Time = 89s
           
fluid      DILUPBiCGStab:  Solving for Ux, Initial residual = 0.21211601, Final residual = 0.00046430807, No Iterations 2
fluid      DILUPBiCGStab:  Solving for Uy, Initial residual = 0.3376426, Final residual = 0.00082091003, No Iterations 2
fluid      DILUPBiCGStab:  Solving for Uz, Initial residual = 0.19549784, Final residual = 0.0005687777, No Iterations 2
fluid      DILUPBiCGStab:  Solving for h, Initial residual = 0.65298081, Final residual = 0.00092638945, No Iterations 2
cold_plate DICPCG:  Solving for e, Initial residual = 0.063999622, Final residual = 3.7839153e-08, No Iterations 14
cold_plate DICPCG:  Solving for e, Initial residual = 0.056389013, Final residual = 7.20275e-08, No Iterations 13
tim        DICPCG:  Solving for e, Initial residual = 0.012415488, Final residual = 2.2157393e-09, No Iterations 7
tim        DICPCG:  Solving for e, Initial residual = 0.0030684759, Final residual = 5.7157481e-08, No Iterations 5
die        DICPCG:  Solving for e, Initial residual = 0.0031755506, Final residual = 6.3839235e-08, No Iterations 9
die        DICPCG:  Solving for e, Initial residual = 0.0026829469, Final residual = 3.9677338e-08, No Iterations 9
fluid      GAMG:  Solving for p_rgh, Initial residual = 0.13500359, Final residual = 0.0054133893, No Iterations 3
fluid      GAMG:  Solving for p_rgh, Initial residual = 0.16838982, Final residual = 0.0074526749, No Iterations 2
fluid      GAMG:  Solving for p_rgh, Initial residual = 0.1135543, Final residual = 0.0055571421, No Iterations 2
fluid      time step continuity errors : sum local = 1.1613214e+08, global = -1230797.1, cumulative = -1236426.4
fluid      DILUPBiCGStab:  Solving for omega, Initial residual = 0.010296705, Final residual = 1.670784e-05, No Iterations 1
fluid      DILUPBiCGStab:  Solving for k, Initial residual = 0.028809774, Final residual = 2.9552227e-05, No Iterations 1
fluid      bounding k, min: 2.0259739e-16 max: 0.036198563 average: 5.4224991e-06
           ExecutionTime = 2558.0493 s  ClockTime = 2566 s
           
           Time = 90s
           
fluid      DILUPBiCGStab:  Solving for Ux, Initial residual = 0.39421634, Final residual = 0.00059765725, No Iterations 2
fluid      DILUPBiCGStab:  Solving for Uy, Initial residual = 0.28129553, Final residual = 0.0026684963, No Iterations 2
fluid      DILUPBiCGStab:  Solving for Uz, Initial residual = 0.3387107, Final residual = 0.00096258329, No Iterations 2
fluid      DILUPBiCGStab:  Solving for h, Initial residual = 0.32718292, Final residual = 0.00069207491, No Iterations 2
cold_plate DICPCG:  Solving for e, Initial residual = 0.088975239, Final residual = 4.3601884e-08, No Iterations 14
cold_plate DICPCG:  Solving for e, Initial residual = 0.08398377, Final residual = 8.5546185e-08, No Iterations 13
tim        DICPCG:  Solving for e, Initial residual = 0.013842518, Final residual = 2.4356731e-09, No Iterations 7
tim        DICPCG:  Solving for e, Initial residual = 0.0034190094, Final residual = 6.8313066e-08, No Iterations 5
die        DICPCG:  Solving for e, Initial residual = 0.0032790964, Final residual = 6.6693531e-08, No Iterations 9
die        DICPCG:  Solving for e, Initial residual = 0.0027619084, Final residual = 4.1496002e-08, No Iterations 9
fluid      GAMG:  Solving for p_rgh, Initial residual = 0.25472388, Final residual = 0.011267207, No Iterations 12
fluid      GAMG:  Solving for p_rgh, Initial residual = 0.22525588, Final residual = 0.0091814593, No Iterations 2
fluid      GAMG:  Solving for p_rgh, Initial residual = 0.13601186, Final residual = 0.0064273732, No Iterations 2
fluid      time step continuity errors : sum local = 26736430, global = -81228.156, cumulative = -1317654.5
fluid      DILUPBiCGStab:  Solving for omega, Initial residual = 0.0097681911, Final residual = 1.3032666e-05, No Iterations 1
fluid      DILUPBiCGStab:  Solving for k, Initial residual = 0.028195037, Final residual = 3.616505e-05, No Iterations 1
fluid      bounding k, min: 2.0504348e-16 max: 0.034471248 average: 5.5360706e-06
           ExecutionTime = 2587.1943 s  ClockTime = 2596 s
           
           Time = 91s
           
fluid      DILUPBiCGStab:  Solving for Ux, Initial residual = 0.22602852, Final residual = 0.0016102844, No Iterations 2
fluid      DILUPBiCGStab:  Solving for Uy, Initial residual = 0.31405577, Final residual = 0.0007976234, No Iterations 2
fluid      DILUPBiCGStab:  Solving for Uz, Initial residual = 0.18435372, Final residual = 0.00094182954, No Iterations 2
fluid      DILUPBiCGStab:  Solving for h, Initial residual = 0.5138892, Final residual = 0.00089683079, No Iterations 2
cold_plate DICPCG:  Solving for e, Initial residual = 0.065049081, Final residual = 3.7802382e-08, No Iterations 14
cold_plate DICPCG:  Solving for e, Initial residual = 0.045463027, Final residual = 6.9024596e-08, No Iterations 13
tim        DICPCG:  Solving for e, Initial residual = 0.016206786, Final residual = 9.6610271e-08, No Iterations 5
tim        DICPCG:  Solving for e, Initial residual = 0.0040034811, Final residual = 8.6940692e-08, No Iterations 5
die        DICPCG:  Solving for e, Initial residual = 0.0034291115, Final residual = 7.1219936e-08, No Iterations 9
die        DICPCG:  Solving for e, Initial residual = 0.0028737112, Final residual = 4.4283449e-08, No Iterations 9
fluid      GAMG:  Solving for p_rgh, Initial residual = 0.081829286, Final residual = 0.0038572009, No Iterations 4
fluid      GAMG:  Solving for p_rgh, Initial residual = 0.26604493, Final residual = 0.0096401034, No Iterations 3
fluid      GAMG:  Solving for p_rgh, Initial residual = 0.070135286, Final residual = 0.0029042391, No Iterations 4
fluid      time step continuity errors : sum local = 1.0106757e+08, global = -2329204.9, cumulative = -3646859.5
fluid      DILUPBiCGStab:  Solving for omega, Initial residual = 0.0077578757, Final residual = 1.3498126e-05, No Iterations 1
fluid      DILUPBiCGStab:  Solving for k, Initial residual = 0.027222157, Final residual = 2.8120686e-05, No Iterations 1
fluid      bounding k, min: 1.8074281e-16 max: 0.03317237 average: 5.716435e-06
           ExecutionTime = 2614.0857 s  ClockTime = 2623 s
           
           Time = 92s
           
fluid      DILUPBiCGStab:  Solving for Ux, Initial residual = 0.26599308, Final residual = 0.0017638476, No Iterations 1
fluid      DILUPBiCGStab:  Solving for Uy, Initial residual = 0.22944843, Final residual = 0.0019797136, No Iterations 2
fluid      DILUPBiCGStab:  Solving for Uz, Initial residual = 0.21667067, Final residual = 0.00064259591, No Iterations 2
fluid      DILUPBiCGStab:  Solving for h, Initial residual = 0.4357631, Final residual = 0.00085504793, No Iterations 2
cold_plate DICPCG:  Solving for e, Initial residual = 0.081446882, Final residual = 4.3845157e-08, No Iterations 14
cold_plate DICPCG:  Solving for e, Initial residual = 0.072416644, Final residual = 8.4281455e-08, No Iterations 13
tim        DICPCG:  Solving for e, Initial residual = 0.018067337, Final residual = 9.8827854e-08, No Iterations 5
tim        DICPCG:  Solving for e, Initial residual = 0.0044788279, Final residual = 9.880816e-08, No Iterations 5
die        DICPCG:  Solving for e, Initial residual = 0.0036183213, Final residual = 7.6702416e-08, No Iterations 9
die        DICPCG:  Solving for e, Initial residual = 0.0030169578, Final residual = 4.7656879e-08, No Iterations 9
fluid      GAMG:  Solving for p_rgh, Initial residual = 0.32937301, Final residual = 0.013142788, No Iterations 11
fluid      GAMG:  Solving for p_rgh, Initial residual = 0.21280222, Final residual = 0.009663192, No Iterations 2
fluid      GAMG:  Solving for p_rgh, Initial residual = 0.17797373, Final residual = 0.0061283679, No Iterations 3
fluid      time step continuity errors : sum local = 31605736, global = -62796.844, cumulative = -3709656.3
fluid      DILUPBiCGStab:  Solving for omega, Initial residual = 0.009412953, Final residual = 9.4874609e-06, No Iterations 1
fluid      DILUPBiCGStab:  Solving for k, Initial residual = 0.027166723, Final residual = 3.2854113e-05, No Iterations 1
fluid      bounding k, min: -2.1681814e-09 max: 0.032149502 average: 5.8927641e-06
           ExecutionTime = 2643.1524 s  ClockTime = 2652 s
           
           Time = 93s
           
fluid      DILUPBiCGStab:  Solving for Ux, Initial residual = 0.20418537, Final residual = 0.00035844414, No Iterations 2
fluid      DILUPBiCGStab:  Solving for Uy, Initial residual = 0.31981521, Final residual = 0.00061785795, No Iterations 2
fluid      DILUPBiCGStab:  Solving for Uz, Initial residual = 0.19219868, Final residual = 0.00027165339, No Iterations 2
fluid      DILUPBiCGStab:  Solving for h, Initial residual = 0.52362374, Final residual = 0.00091762486, No Iterations 2
cold_plate DICPCG:  Solving for e, Initial residual = 0.06356351, Final residual = 3.9244327e-08, No Iterations 14
cold_plate DICPCG:  Solving for e, Initial residual = 0.046924815, Final residual = 7.200286e-08, No Iterations 13
tim        DICPCG:  Solving for e, Initial residual = 0.019726824, Final residual = 4.0690816e-09, No Iterations 7
tim        DICPCG:  Solving for e, Initial residual = 0.0049014952, Final residual = 1.8761666e-08, No Iterations 6
die        DICPCG:  Solving for e, Initial residual = 0.0038402959, Final residual = 8.2845984e-08, No Iterations 9
die        DICPCG:  Solving for e, Initial residual = 0.0031883351, Final residual = 5.1409377e-08, No Iterations 9
fluid      GAMG:  Solving for p_rgh, Initial residual = 0.13733416, Final residual = 0.0063829967, No Iterations 3
fluid      GAMG:  Solving for p_rgh, Initial residual = 0.2550478, Final residual = 0.010058206, No Iterations 3
fluid      GAMG:  Solving for p_rgh, Initial residual = 0.12174368, Final residual = 0.0048947555, No Iterations 3
fluid      time step continuity errors : sum local = 1.6856554e+08, global = 1906952.7, cumulative = -1802703.6
fluid      DILUPBiCGStab:  Solving for omega, Initial residual = 0.0095081324, Final residual = 1.3837981e-05, No Iterations 1
fluid      DILUPBiCGStab:  Solving for k, Initial residual = 0.026293399, Final residual = 2.4521521e-05, No Iterations 1
fluid      bounding k, min: 1.7497188e-16 max: 0.030911347 average: 6.0617663e-06
           ExecutionTime = 2669.4377 s  ClockTime = 2678 s
           
           Time = 94s
           
fluid      DILUPBiCGStab:  Solving for Ux, Initial residual = 0.31967696, Final residual = 0.0026856911, No Iterations 1
fluid      DILUPBiCGStab:  Solving for Uy, Initial residual = 0.25757869, Final residual = 0.0014919787, No Iterations 2
fluid      DILUPBiCGStab:  Solving for Uz, Initial residual = 0.27483005, Final residual = 0.00068553216, No Iterations 2
