/*---------------------------------------------------------------------------*\
  =========                 |
  \\      /  F ield         | OpenFOAM: The Open Source CFD Toolbox
   \\    /   O peration     | Website:  https://openfoam.org
    \\  /    A nd           | Version:  13
     \\/     M anipulation  |
\*---------------------------------------------------------------------------*/
Build  : 13-441953dfbb42
Exec   : foamMultiRun -parallel
Date   : Jun 25 2026
Time   : 10:22:07
Host   : "foam"
PID    : 459014
I/O    : uncollated
Case   : /home/gaelle/OpenFOAM/hm27_ne_quarter
nProcs : 24
Slaves : 
23
(
"foam.459015"
"foam.459016"
"foam.459018"
"foam.459022"
"foam.459024"
"foam.459027"
"foam.459029"
"foam.459034"
"foam.459035"
"foam.459038"
"foam.459040"
"foam.459043"
"foam.459047"
"foam.459048"
"foam.459052"
"foam.459055"
"foam.459057"
"foam.459066"
"foam.459069"
"foam.459070"
"foam.459072"
"foam.459073"
"foam.459074"
)

Pstream initialised with:
    floatTransfer      : false
    nProcsSimpleSum    : 0
    commsType          : nonBlocking
    polling iterations : 0
sigFpe : Floating point exception trapping - not supported on this platform
fileModificationChecking : Monitoring run-time modified files using timeStampMaster (fileModificationSkew 10)
allowSystemOperations : Allowing user-supplied system call operations

// * * * * * * * * * * * * * * * * * * * * * * * * * * * * * * * * * * * * * //
Create time

--> FOAM Warning : 
    From function virtual void Foam::Time::readDict()
    in file db/Time/TimeIO.C at line 185
    Reading "/home/gaelle/OpenFOAM/hm27_ne_quarter/system/controlDict" at line 62
    Selecting compressed binary is inefficient and ineffective, resetting to uncompressed binary
Selecting solver fluid
Selecting thermodynamics package 
{
    type            heRhoThermo;
    mixture         pureMixture;
    transport       const;
    thermo          hConst;
    equationOfState rhoConst;
    specie          specie;
    energy          sensibleEnthalpy;
}

Selecting turbulence model type RAS
    Selecting RAS turbulence model kOmegaSST
bounding k, min: 2.220446e-16 max: 0.54722952 average: 0.0003219807
No MRF models present

Selecting patchDistMethod meshWave
Creating fvConstraints from "system/fvConstraints"

Selecting finite volume constraint type limitTemperature
    Name: limitTemperature(min=280,max=400)
Selecting finite volume constraint type limitMag
    Name: limitU
Selecting thermophysical transport type RAS
Selecting default RAS thermophysical transport model unityLewisEddyDiffusivity
Selecting solver solid
Selecting thermodynamics package 
{
    type            heSolidThermo;
    mixture         pureMixture;
    transport       constIsoSolid;
    thermo          eConst;
    equationOfState rhoConst;
    specie          specie;
    energy          sensibleInternalEnergy;
}

Selecting default solid thermophysical transport model isotropic
Selecting solver solid
Selecting thermodynamics package 
{
    type            heSolidThermo;
    mixture         pureMixture;
    transport       constIsoSolid;
    thermo          eConst;
    equationOfState rhoConst;
    specie          specie;
    energy          sensibleInternalEnergy;
}

Selecting default solid thermophysical transport model isotropic
Selecting solver solid
Selecting thermodynamics package 
{
    type            heSolidThermo;
    mixture         pureMixture;
    transport       constIsoSolid;
    thermo          eConst;
    equationOfState rhoConst;
    specie          specie;
    energy          sensibleInternalEnergy;
}

Selecting default solid thermophysical transport model isotropic

PIMPLE: Region fluid
PIMPLE: Convergence criteria found
        U: tolerance 1e-06
        h: tolerance 1e-06
        "(k|omega)": tolerance 0.0001


PIMPLE: Region cold_plate
PIMPLE: Convergence criteria found
        e: tolerance 1e-06


PIMPLE: Region tim
PIMPLE: Convergence criteria found
        e: tolerance 1e-06


PIMPLE: Region die
PIMPLE: Convergence criteria found
        e: tolerance 1e-06


PIMPLE: Operating solver in steady-state mode with 1 outer corrector
PIMPLE: Operating solver in SIMPLE mode



Starting time loop

           Time = 5001s
           
fluid      DILUPBiCGStab:  Solving for h, Initial residual = 5.5025881e-06, Final residual = 5.5697284e-08, No Iterations 3
cold_plate DICPCG:  Solving for e, Initial residual = 4.5213654e-06, Final residual = 6.7643147e-08, No Iterations 5
cold_plate DICPCG:  Solving for e, Initial residual = 4.3482065e-06, Final residual = 7.4927799e-08, No Iterations 5
tim        DICPCG:  Solving for e, Initial residual = 0.46464869, Final residual = 3.7039642e-09, No Iterations 10
tim        DICPCG:  Solving for e, Initial residual = 0.085903003, Final residual = 4.2335235e-08, No Iterations 8
die        DICPCG:  Solving for e, Initial residual = 1, Final residual = 5.4148733e-08, No Iterations 19
die        DICPCG:  Solving for e, Initial residual = 0.26038294, Final residual = 5.2682236e-08, No Iterations 17
fluid      GAMG:  Solving for p_rgh, Initial residual = 1.2903152e-06, Final residual = 8.1357293e-07, No Iterations 1
fluid      GAMG:  Solving for p_rgh, Initial residual = 1.3269901e-06, Final residual = 4.5004688e-07, No Iterations 1
fluid      time step continuity errors : sum local = 0.11306398, global = -6.365132e-05, cumulative = -6.365132e-05
fluid      DILUPBiCGStab:  Solving for omega, Initial residual = 7.6460294e-08, Final residual = 7.6460294e-08, No Iterations 0
fluid      DILUPBiCGStab:  Solving for k, Initial residual = 1.0195093e-07, Final residual = 2.0275356e-09, No Iterations 1
fluid      bounding k, min: 1.5449221e-16 max: 0.54722952 average: 0.00032198086
           ExecutionTime = 363.24771 s  ClockTime = 726 s
           
           Time = 5002s
           
fluid      DILUPBiCGStab:  Solving for h, Initial residual = 5.492977e-06, Final residual = 2.4574251e-08, No Iterations 4
cold_plate DICPCG:  Solving for e, Initial residual = 0.0016671348, Final residual = 5.0057396e-08, No Iterations 15
cold_plate DICPCG:  Solving for e, Initial residual = 0.0011806317, Final residual = 6.9276095e-08, No Iterations 14
tim        DICPCG:  Solving for e, Initial residual = 0.079059559, Final residual = 1.6342865e-08, No Iterations 7
tim        DICPCG:  Solving for e, Initial residual = 0.0068119198, Final residual = 1.1320164e-08, No Iterations 7
die        DICPCG:  Solving for e, Initial residual = 0.26328538, Final residual = 5.7698365e-08, No Iterations 17
die        DICPCG:  Solving for e, Initial residual = 0.17119413, Final residual = 6.9261936e-08, No Iterations 16
fluid      GAMG:  Solving for p_rgh, Initial residual = 1.3586944e-06, Final residual = 5.3811013e-07, No Iterations 1
fluid      GAMG:  Solving for p_rgh, Initial residual = 8.833372e-07, Final residual = 8.833372e-07, No Iterations 0
fluid      time step continuity errors : sum local = 0.22191827, global = -9.2811688e-05, cumulative = -0.00015646301
fluid      DILUPBiCGStab:  Solving for omega, Initial residual = 7.6389099e-08, Final residual = 7.6389099e-08, No Iterations 0
fluid      DILUPBiCGStab:  Solving for k, Initial residual = 9.8637239e-08, Final residual = 9.8637239e-08, No Iterations 0
           ExecutionTime = 399.45998 s  ClockTime = 795 s
           
           Time = 5003s
           
fluid      DILUPBiCGStab:  Solving for h, Initial residual = 1.9957146e-05, Final residual = 1.6433342e-07, No Iterations 3
cold_plate DICPCG:  Solving for e, Initial residual = 0.0016736075, Final residual = 5.4674758e-08, No Iterations 15
cold_plate DICPCG:  Solving for e, Initial residual = 0.0013642286, Final residual = 7.4617366e-08, No Iterations 14
tim        DICPCG:  Solving for e, Initial residual = 0.051008166, Final residual = 2.103619e-08, No Iterations 7
tim        DICPCG:  Solving for e, Initial residual = 0.004587214, Final residual = 4.8547875e-08, No Iterations 5
die        DICPCG:  Solving for e, Initial residual = 0.17909274, Final residual = 9.634811e-08, No Iterations 16
die        DICPCG:  Solving for e, Initial residual = 0.12039192, Final residual = 4.7381489e-08, No Iterations 16
fluid      GAMG:  Solving for p_rgh, Initial residual = 1.3019179e-06, Final residual = 6.3298684e-07, No Iterations 2
fluid      GAMG:  Solving for p_rgh, Initial residual = 1.2970716e-06, Final residual = 4.6190661e-07, No Iterations 1
fluid      time step continuity errors : sum local = 0.11604349, global = -6.8123406e-05, cumulative = -0.00022458641
fluid      DILUPBiCGStab:  Solving for omega, Initial residual = 7.6389032e-08, Final residual = 7.6389032e-08, No Iterations 0
fluid      DILUPBiCGStab:  Solving for k, Initial residual = 9.8553838e-08, Final residual = 9.8553838e-08, No Iterations 0
           ExecutionTime = 455.47964 s  ClockTime = 904 s
           
           Time = 5004s
           
fluid      DILUPBiCGStab:  Solving for h, Initial residual = 6.1204804e-05, Final residual = 4.577138e-07, No Iterations 3
cold_plate DICPCG:  Solving for e, Initial residual = 0.0015677493, Final residual = 9.9244955e-08, No Iterations 14
cold_plate DICPCG:  Solving for e, Initial residual = 0.0013630681, Final residual = 7.1136625e-08, No Iterations 14
tim        DICPCG:  Solving for e, Initial residual = 0.044851513, Final residual = 1.7065679e-08, No Iterations 7
tim        DICPCG:  Solving for e, Initial residual = 0.0042368038, Final residual = 7.6180881e-08, No Iterations 5
die        DICPCG:  Solving for e, Initial residual = 0.12916353, Final residual = 6.8996172e-08, No Iterations 16
die        DICPCG:  Solving for e, Initial residual = 0.089370633, Final residual = 7.7391374e-08, No Iterations 15
fluid      GAMG:  Solving for p_rgh, Initial residual = 1.0167894e-06, Final residual = 4.500358e-07, No Iterations 1
fluid      GAMG:  Solving for p_rgh, Initial residual = 7.2010006e-07, Final residual = 7.2010006e-07, No Iterations 0
fluid      time step continuity errors : sum local = 0.18090871, global = -8.085516e-05, cumulative = -0.00030544157
fluid      DILUPBiCGStab:  Solving for omega, Initial residual = 7.6389134e-08, Final residual = 7.6389134e-08, No Iterations 0
fluid      DILUPBiCGStab:  Solving for k, Initial residual = 9.9172465e-08, Final residual = 9.9172465e-08, No Iterations 0
           ExecutionTime = 487.6365 s  ClockTime = 969 s
           
           Time = 5005s
           
fluid      DILUPBiCGStab:  Solving for h, Initial residual = 0.00011756237, Final residual = 9.6037178e-07, No Iterations 3
cold_plate DICPCG:  Solving for e, Initial residual = 0.0014738027, Final residual = 8.7627785e-08, No Iterations 14
cold_plate DICPCG:  Solving for e, Initial residual = 0.0013278437, Final residual = 6.5278408e-08, No Iterations 14
tim        DICPCG:  Solving for e, Initial residual = 0.041623027, Final residual = 1.4020914e-08, No Iterations 7
tim        DICPCG:  Solving for e, Initial residual = 0.0041314935, Final residual = 5.0233795e-09, No Iterations 7
die        DICPCG:  Solving for e, Initial residual = 0.09900058, Final residual = 5.2785279e-08, No Iterations 16
die        DICPCG:  Solving for e, Initial residual = 0.069859503, Final residual = 6.0404567e-08, No Iterations 15
fluid      GAMG:  Solving for p_rgh, Initial residual = 1.0193421e-06, Final residual = 4.4799129e-07, No Iterations 1
fluid      GAMG:  Solving for p_rgh, Initial residual = 7.2905175e-07, Final residual = 7.2905175e-07, No Iterations 0
fluid      time step continuity errors : sum local = 0.18315763, global = -5.550727e-05, cumulative = -0.00036094884
fluid      DILUPBiCGStab:  Solving for omega, Initial residual = 7.6389186e-08, Final residual = 7.6389186e-08, No Iterations 0
fluid      DILUPBiCGStab:  Solving for k, Initial residual = 9.9181477e-08, Final residual = 9.9181477e-08, No Iterations 0
           ExecutionTime = 520.08408 s  ClockTime = 1033 s
           
           Time = 5006s
           
fluid      DILUPBiCGStab:  Solving for h, Initial residual = 0.00017830788, Final residual = 1.7292026e-06, No Iterations 3
cold_plate DICPCG:  Solving for e, Initial residual = 0.0013909273, Final residual = 7.4667579e-08, No Iterations 14
cold_plate DICPCG:  Solving for e, Initial residual = 0.001283165, Final residual = 5.8432794e-08, No Iterations 14
tim        DICPCG:  Solving for e, Initial residual = 0.039215203, Final residual = 1.1548344e-08, No Iterations 7
tim        DICPCG:  Solving for e, Initial residual = 0.0041131635, Final residual = 6.445182e-09, No Iterations 7
die        DICPCG:  Solving for e, Initial residual = 0.079328296, Final residual = 8.1244241e-08, No Iterations 15
die        DICPCG:  Solving for e, Initial residual = 0.056678868, Final residual = 4.9043594e-08, No Iterations 15
fluid      GAMG:  Solving for p_rgh, Initial residual = 1.0008399e-06, Final residual = 6.9711911e-07, No Iterations 1
fluid      GAMG:  Solving for p_rgh, Initial residual = 1.1240672e-06, Final residual = 4.1161895e-07, No Iterations 1
fluid      time step continuity errors : sum local = 0.10340989, global = -5.954532e-05, cumulative = -0.00042049416
fluid      DILUPBiCGStab:  Solving for omega, Initial residual = 7.6389122e-08, Final residual = 7.6389122e-08, No Iterations 0
fluid      DILUPBiCGStab:  Solving for k, Initial residual = 9.9701831e-08, Final residual = 9.9701831e-08, No Iterations 0
           ExecutionTime = 559.90432 s  ClockTime = 1111 s
           
           Time = 5007s
           
fluid      DILUPBiCGStab:  Solving for h, Initial residual = 0.00023847875, Final residual = 1.2783501e-06, No Iterations 3
cold_plate DICPCG:  Solving for e, Initial residual = 0.0013163699, Final residual = 6.1823935e-08, No Iterations 14
cold_plate DICPCG:  Solving for e, Initial residual = 0.0012353427, Final residual = 5.0758397e-08, No Iterations 14
tim        DICPCG:  Solving for e, Initial residual = 0.037017325, Final residual = 1.2491458e-08, No Iterations 7
tim        DICPCG:  Solving for e, Initial residual = 0.0040880413, Final residual = 7.3625156e-09, No Iterations 7
die        DICPCG:  Solving for e, Initial residual = 0.065597328, Final residual = 6.7345825e-08, No Iterations 15
die        DICPCG:  Solving for e, Initial residual = 0.04727314, Final residual = 9.8147086e-08, No Iterations 14
fluid      GAMG:  Solving for p_rgh, Initial residual = 1.0897496e-06, Final residual = 3.2171588e-07, No Iterations 1
fluid      GAMG:  Solving for p_rgh, Initial residual = 5.3888666e-07, Final residual = 5.3888666e-07, No Iterations 0
fluid      time step continuity errors : sum local = 0.135383, global = -1.3086171e-05, cumulative = -0.00043358034
fluid      DILUPBiCGStab:  Solving for omega, Initial residual = 7.638912e-08, Final residual = 7.638912e-08, No Iterations 0
fluid      DILUPBiCGStab:  Solving for k, Initial residual = 9.9763498e-08, Final residual = 9.9763498e-08, No Iterations 0
           ExecutionTime = 593.63183 s  ClockTime = 1177 s
           
           Time = 5008s
           
fluid      DILUPBiCGStab:  Solving for h, Initial residual = 0.00029595657, Final residual = 1.4022216e-06, No Iterations 3
cold_plate DICPCG:  Solving for e, Initial residual = 0.0012518794, Final residual = 5.1541362e-08, No Iterations 14
cold_plate DICPCG:  Solving for e, Initial residual = 0.0011867231, Final residual = 9.2292862e-08, No Iterations 13
tim        DICPCG:  Solving for e, Initial residual = 0.034752704, Final residual = 1.500873e-08, No Iterations 7
tim        DICPCG:  Solving for e, Initial residual = 0.0040328916, Final residual = 7.905578e-09, No Iterations 7
die        DICPCG:  Solving for e, Initial residual = 0.055524294, Final residual = 5.7158564e-08, No Iterations 15
die        DICPCG:  Solving for e, Initial residual = 0.040265691, Final residual = 8.3721798e-08, No Iterations 14
fluid      GAMG:  Solving for p_rgh, Initial residual = 9.2445471e-07, Final residual = 9.2445471e-07, No Iterations 0
fluid      GAMG:  Solving for p_rgh, Initial residual = 9.2445471e-07, Final residual = 9.2445471e-07, No Iterations 0
fluid      time step continuity errors : sum local = 0.2322482, global = 3.2743517e-05, cumulative = -0.00040083682
fluid      DILUPBiCGStab:  Solving for omega, Initial residual = 7.6389737e-08, Final residual = 7.6389737e-08, No Iterations 0
fluid      DILUPBiCGStab:  Solving for k, Initial residual = 1.0079723e-07, Final residual = 1.9924965e-09, No Iterations 1
fluid      bounding k, min: 1.5448534e-16 max: 0.54722952 average: 0.00032198102
           ExecutionTime = 614.16962 s  ClockTime = 1218 s
           
           Time = 5009s
           
fluid      DILUPBiCGStab:  Solving for h, Initial residual = 0.00034983953, Final residual = 1.7315665e-06, No Iterations 3
cold_plate DICPCG:  Solving for e, Initial residual = 0.0011991994, Final residual = 9.7949708e-08, No Iterations 13
cold_plate DICPCG:  Solving for e, Initial residual = 0.0011391092, Final residual = 8.486457e-08, No Iterations 13
tim        DICPCG:  Solving for e, Initial residual = 0.032396494, Final residual = 1.685856e-08, No Iterations 7
tim        DICPCG:  Solving for e, Initial residual = 0.0039314092, Final residual = 9.9656329e-08, No Iterations 6
die        DICPCG:  Solving for e, Initial residual = 0.047837178, Final residual = 4.9360126e-08, No Iterations 15
die        DICPCG:  Solving for e, Initial residual = 0.034860699, Final residual = 7.2583989e-08, No Iterations 14
fluid      GAMG:  Solving for p_rgh, Initial residual = 1.3571643e-06, Final residual = 6.3998466e-07, No Iterations 2
fluid      GAMG:  Solving for p_rgh, Initial residual = 1.3854693e-06, Final residual = 5.7546897e-07, No Iterations 1
fluid      time step continuity errors : sum local = 0.14457347, global = 1.0872174e-05, cumulative = -0.00038996464
fluid      DILUPBiCGStab:  Solving for omega, Initial residual = 7.6389319e-08, Final residual = 7.6389319e-08, No Iterations 0
fluid      DILUPBiCGStab:  Solving for k, Initial residual = 9.8586323e-08, Final residual = 9.8586323e-08, No Iterations 0
           ExecutionTime = 668.59989 s  ClockTime = 1329 s
           
           Time = 5010s
           
fluid      DILUPBiCGStab:  Solving for h, Initial residual = 0.00039956001, Final residual = 2.1018963e-06, No Iterations 3
cold_plate DICPCG:  Solving for e, Initial residual = 0.0011528608, Final residual = 8.9795236e-08, No Iterations 13
cold_plate DICPCG:  Solving for e, Initial residual = 0.0010951875, Final residual = 7.9892937e-08, No Iterations 13
tim        DICPCG:  Solving for e, Initial residual = 0.030174864, Final residual = 1.8010113e-08, No Iterations 7
tim        DICPCG:  Solving for e, Initial residual = 0.0038115042, Final residual = 9.5340323e-08, No Iterations 6
die        DICPCG:  Solving for e, Initial residual = 0.041795305, Final residual = 4.3213717e-08, No Iterations 15
die        DICPCG:  Solving for e, Initial residual = 0.030578721, Final residual = 6.3748177e-08, No Iterations 14
fluid      GAMG:  Solving for p_rgh, Initial residual = 1.1722091e-06, Final residual = 4.2162333e-07, No Iterations 1
fluid      GAMG:  Solving for p_rgh, Initial residual = 6.9350163e-07, Final residual = 6.9350163e-07, No Iterations 0
fluid      time step continuity errors : sum local = 0.17422646, global = 4.4118019e-05, cumulative = -0.00034584663
fluid      DILUPBiCGStab:  Solving for omega, Initial residual = 7.638927e-08, Final residual = 7.638927e-08, No Iterations 0
fluid      DILUPBiCGStab:  Solving for k, Initial residual = 9.8425004e-08, Final residual = 9.8425004e-08, No Iterations 0
           ExecutionTime = 700.97389 s  ClockTime = 1395 s
           
           Time = 5011s
           
fluid      DILUPBiCGStab:  Solving for h, Initial residual = 0.00044488753, Final residual = 2.5050269e-06, No Iterations 3
cold_plate DICPCG:  Solving for e, Initial residual = 0.0011151222, Final residual = 8.4675427e-08, No Iterations 13
cold_plate DICPCG:  Solving for e, Initial residual = 0.0010552739, Final residual = 7.59935e-08, No Iterations 13
tim        DICPCG:  Solving for e, Initial residual = 0.028055316, Final residual = 1.8561022e-08, No Iterations 7
tim        DICPCG:  Solving for e, Initial residual = 0.0036626734, Final residual = 9.0433966e-08, No Iterations 6
die        DICPCG:  Solving for e, Initial residual = 0.036933762, Final residual = 3.8253556e-08, No Iterations 15
die        DICPCG:  Solving for e, Initial residual = 0.027109462, Final residual = 5.6577719e-08, No Iterations 14
fluid      GAMG:  Solving for p_rgh, Initial residual = 9.8846446e-07, Final residual = 9.8846446e-07, No Iterations 0
fluid      GAMG:  Solving for p_rgh, Initial residual = 9.8846446e-07, Final residual = 9.8846446e-07, No Iterations 0
fluid      time step continuity errors : sum local = 0.24832912, global = 7.4950246e-05, cumulative = -0.00027089638
fluid      DILUPBiCGStab:  Solving for omega, Initial residual = 7.6389701e-08, Final residual = 7.6389701e-08, No Iterations 0
fluid      DILUPBiCGStab:  Solving for k, Initial residual = 9.9843606e-08, Final residual = 9.9843606e-08, No Iterations 0
           ExecutionTime = 721.59949 s  ClockTime = 1435 s
           
           Time = 5012s
           
fluid      DILUPBiCGStab:  Solving for h, Initial residual = 0.00048579864, Final residual = 2.963642e-06, No Iterations 3
cold_plate DICPCG:  Solving for e, Initial residual = 0.0010811696, Final residual = 8.1560014e-08, No Iterations 13
cold_plate DICPCG:  Solving for e, Initial residual = 0.0010189979, Final residual = 7.2721104e-08, No Iterations 13
tim        DICPCG:  Solving for e, Initial residual = 0.02608764, Final residual = 1.865944e-08, No Iterations 7
tim        DICPCG:  Solving for e, Initial residual = 0.0034915534, Final residual = 8.5235009e-08, No Iterations 6
die        DICPCG:  Solving for e, Initial residual = 0.032943281, Final residual = 3.4170668e-08, No Iterations 15
die        DICPCG:  Solving for e, Initial residual = 0.024245583, Final residual = 5.0648766e-08, No Iterations 14
fluid      GAMG:  Solving for p_rgh, Initial residual = 1.3371184e-06, Final residual = 7.766461e-07, No Iterations 2
fluid      GAMG:  Solving for p_rgh, Initial residual = 1.8218234e-06, Final residual = 4.2672178e-07, No Iterations 1
fluid      time step continuity errors : sum local = 0.10720409, global = 1.7540854e-05, cumulative = -0.00025335552
fluid      DILUPBiCGStab:  Solving for omega, Initial residual = 7.6389146e-08, Final residual = 7.6389146e-08, No Iterations 0
fluid      DILUPBiCGStab:  Solving for k, Initial residual = 9.8954249e-08, Final residual = 9.8954249e-08, No Iterations 0
           ExecutionTime = 774.11625 s  ClockTime = 1541 s
           
           Time = 5013s
           
fluid      DILUPBiCGStab:  Solving for h, Initial residual = 0.00052240667, Final residual = 3.7157178e-06, No Iterations 3
cold_plate DICPCG:  Solving for e, Initial residual = 0.0010491617, Final residual = 7.9718682e-08, No Iterations 13
cold_plate DICPCG:  Solving for e, Initial residual = 0.00098598836, Final residual = 7.0023029e-08, No Iterations 13
tim        DICPCG:  Solving for e, Initial residual = 0.024369573, Final residual = 1.8455596e-08, No Iterations 7
tim        DICPCG:  Solving for e, Initial residual = 0.0033152781, Final residual = 8.0144207e-08, No Iterations 6
die        DICPCG:  Solving for e, Initial residual = 0.029612835, Final residual = 3.0754472e-08, No Iterations 15
die        DICPCG:  Solving for e, Initial residual = 0.021844081, Final residual = 4.5669277e-08, No Iterations 14
fluid      GAMG:  Solving for p_rgh, Initial residual = 9.8806249e-07, Final residual = 9.8806249e-07, No Iterations 0
fluid      GAMG:  Solving for p_rgh, Initial residual = 9.8806249e-07, Final residual = 9.8806249e-07, No Iterations 0
fluid      time step continuity errors : sum local = 0.24822806, global = 2.4532156e-05, cumulative = -0.00022882337
fluid      DILUPBiCGStab:  Solving for omega, Initial residual = 7.6389532e-08, Final residual = 7.6389532e-08, No Iterations 0
fluid      DILUPBiCGStab:  Solving for k, Initial residual = 1.0048723e-07, Final residual = 2.0468532e-09, No Iterations 1
fluid      bounding k, min: 1.5467406e-16 max: 0.54722952 average: 0.00032198117
           ExecutionTime = 794.14027 s  ClockTime = 1581 s
           
           Time = 5014s
           
fluid      DILUPBiCGStab:  Solving for h, Initial residual = 0.0005549387, Final residual = 1.056362e-06, No Iterations 5
cold_plate DICPCG:  Solving for e, Initial residual = 0.0010184602, Final residual = 7.8397796e-08, No Iterations 13
cold_plate DICPCG:  Solving for e, Initial residual = 0.00095514618, Final residual = 6.7832213e-08, No Iterations 13
tim        DICPCG:  Solving for e, Initial residual = 0.022822877, Final residual = 1.8062785e-08, No Iterations 7
tim        DICPCG:  Solving for e, Initial residual = 0.0031430324, Final residual = 7.5334016e-08, No Iterations 6
die        DICPCG:  Solving for e, Initial residual = 0.026793968, Final residual = 9.2126633e-08, No Iterations 14
die        DICPCG:  Solving for e, Initial residual = 0.019803311, Final residual = 4.1475385e-08, No Iterations 14
fluid      GAMG:  Solving for p_rgh, Initial residual = 1.3743814e-06, Final residual = 6.3425613e-07, No Iterations 1
fluid      GAMG:  Solving for p_rgh, Initial residual = 1.055178e-06, Final residual = 3.3362518e-07, No Iterations 1
fluid      time step continuity errors : sum local = 0.08381568, global = -5.9268301e-05, cumulative = -0.00028809167
fluid      DILUPBiCGStab:  Solving for omega, Initial residual = 7.6389045e-08, Final residual = 7.6389045e-08, No Iterations 0
fluid      DILUPBiCGStab:  Solving for k, Initial residual = 9.7811296e-08, Final residual = 9.7811296e-08, No Iterations 0
           ExecutionTime = 833.0765 s  ClockTime = 1660 s
           
           Time = 5015s
           
fluid      DILUPBiCGStab:  Solving for h, Initial residual = 0.00058370462, Final residual = 3.7512236e-06, No Iterations 3
cold_plate DICPCG:  Solving for e, Initial residual = 0.00098889357, Final residual = 7.7150697e-08, No Iterations 13
cold_plate DICPCG:  Solving for e, Initial residual = 0.00092565216, Final residual = 6.5976707e-08, No Iterations 13
tim        DICPCG:  Solving for e, Initial residual = 0.021409568, Final residual = 1.7558937e-08, No Iterations 7
tim        DICPCG:  Solving for e, Initial residual = 0.0029769874, Final residual = 7.0802913e-08, No Iterations 6
die        DICPCG:  Solving for e, Initial residual = 0.024379289, Final residual = 8.3918046e-08, No Iterations 14
die        DICPCG:  Solving for e, Initial residual = 0.018049158, Final residual = 9.6611079e-08, No Iterations 13
fluid      GAMG:  Solving for p_rgh, Initial residual = 1.0137702e-06, Final residual = 7.0779351e-07, No Iterations 1
fluid      GAMG:  Solving for p_rgh, Initial residual = 1.0508754e-06, Final residual = 5.8880505e-07, No Iterations 1
fluid      time step continuity errors : sum local = 0.14792377, global = -2.8393561e-05, cumulative = -0.00031648523
fluid      DILUPBiCGStab:  Solving for omega, Initial residual = 7.638931e-08, Final residual = 7.638931e-08, No Iterations 0
fluid      DILUPBiCGStab:  Solving for k, Initial residual = 9.7710257e-08, Final residual = 9.7710257e-08, No Iterations 0
           ExecutionTime = 879.12341 s  ClockTime = 1753 s
           
           Time = 5016s
           
fluid      DILUPBiCGStab:  Solving for h, Initial residual = 0.00060848697, Final residual = 4.2103283e-06, No Iterations 3
cold_plate DICPCG:  Solving for e, Initial residual = 0.00096034129, Final residual = 7.5813761e-08, No Iterations 13
cold_plate DICPCG:  Solving for e, Initial residual = 0.00089697283, Final residual = 6.4285103e-08, No Iterations 13
tim        DICPCG:  Solving for e, Initial residual = 0.020113215, Final residual = 1.6987041e-08, No Iterations 7
tim        DICPCG:  Solving for e, Initial residual = 0.0028181944, Final residual = 6.6553449e-08, No Iterations 6
die        DICPCG:  Solving for e, Initial residual = 0.02228963, Final residual = 7.6752727e-08, No Iterations 14
die        DICPCG:  Solving for e, Initial residual = 0.016526565, Final residual = 8.8535292e-08, No Iterations 13
fluid      GAMG:  Solving for p_rgh, Initial residual = 1.3626877e-06, Final residual = 6.7682559e-07, No Iterations 1
fluid      GAMG:  Solving for p_rgh, Initial residual = 1.1007984e-06, Final residual = 8.9486179e-07, No Iterations 1
fluid      time step continuity errors : sum local = 0.22481351, global = -7.3687994e-05, cumulative = -0.00039017322
fluid      DILUPBiCGStab:  Solving for omega, Initial residual = 7.6389714e-08, Final residual = 7.6389714e-08, No Iterations 0
fluid      DILUPBiCGStab:  Solving for k, Initial residual = 9.8361087e-08, Final residual = 9.8361087e-08, No Iterations 0
           ExecutionTime = 927.37871 s  ClockTime = 1847 s
           
           Time = 5017s
           
fluid      DILUPBiCGStab:  Solving for h, Initial residual = 0.00063008994, Final residual = 5.9780489e-06, No Iterations 4
cold_plate DICPCG:  Solving for e, Initial residual = 0.00093250334, Final residual = 7.4351897e-08, No Iterations 13
cold_plate DICPCG:  Solving for e, Initial residual = 0.0008690453, Final residual = 6.2636673e-08, No Iterations 13
tim        DICPCG:  Solving for e, Initial residual = 0.018918595, Final residual = 1.6374896e-08, No Iterations 7
tim        DICPCG:  Solving for e, Initial residual = 0.0026672593, Final residual = 6.2583408e-08, No Iterations 6
die        DICPCG:  Solving for e, Initial residual = 0.020465322, Final residual = 7.0532332e-08, No Iterations 14
die        DICPCG:  Solving for e, Initial residual = 0.015194023, Final residual = 8.146222e-08, No Iterations 13
fluid      GAMG:  Solving for p_rgh, Initial residual = 1.8047684e-06, Final residual = 6.661708e-07, No Iterations 1
fluid      GAMG:  Solving for p_rgh, Initial residual = 1.1883359e-06, Final residual = 5.5190719e-07, No Iterations 2
fluid      time step continuity errors : sum local = 0.13865403, global = -2.0090499e-05, cumulative = -0.00041026372
fluid      DILUPBiCGStab:  Solving for omega, Initial residual = 7.6389347e-08, Final residual = 7.6389347e-08, No Iterations 0
fluid      DILUPBiCGStab:  Solving for k, Initial residual = 9.8206289e-08, Final residual = 9.8206289e-08, No Iterations 0
           ExecutionTime = 988.24125 s  ClockTime = 1970 s
           
           Time = 5018s
           
fluid      DILUPBiCGStab:  Solving for h, Initial residual = 0.0006482075, Final residual = 5.2505727e-06, No Iterations 3
cold_plate DICPCG:  Solving for e, Initial residual = 0.00090512334, Final residual = 7.274543e-08, No Iterations 13
cold_plate DICPCG:  Solving for e, Initial residual = 0.00084173304, Final residual = 6.0984397e-08, No Iterations 13
tim        DICPCG:  Solving for e, Initial residual = 0.017816315, Final residual = 1.5744382e-08, No Iterations 7
tim        DICPCG:  Solving for e, Initial residual = 0.0025244571, Final residual = 9.9359019e-08, No Iterations 5
die        DICPCG:  Solving for e, Initial residual = 0.018860423, Final residual = 6.5052594e-08, No Iterations 14
die        DICPCG:  Solving for e, Initial residual = 0.014019001, Final residual = 7.5215623e-08, No Iterations 13
fluid      GAMG:  Solving for p_rgh, Initial residual = 1.2598167e-06, Final residual = 5.0884452e-07, No Iterations 1
fluid      GAMG:  Solving for p_rgh, Initial residual = 7.2807584e-07, Final residual = 7.2807584e-07, No Iterations 0
fluid      time step continuity errors : sum local = 0.18291241, global = -8.6694664e-05, cumulative = -0.00049695839
fluid      DILUPBiCGStab:  Solving for omega, Initial residual = 7.6389443e-08, Final residual = 7.6389443e-08, No Iterations 0
fluid      DILUPBiCGStab:  Solving for k, Initial residual = 9.8946901e-08, Final residual = 9.8946901e-08, No Iterations 0
           ExecutionTime = 1017.9444 s  ClockTime = 2027 s
           
           Time = 5019s
           
fluid      DILUPBiCGStab:  Solving for h, Initial residual = 0.00066361323, Final residual = 4.8003633e-06, No Iterations 3
cold_plate DICPCG:  Solving for e, Initial residual = 0.00087814769, Final residual = 7.102543e-08, No Iterations 13
cold_plate DICPCG:  Solving for e, Initial residual = 0.00081506702, Final residual = 5.9321197e-08, No Iterations 13
tim        DICPCG:  Solving for e, Initial residual = 0.016797454, Final residual = 1.5088953e-08, No Iterations 7
tim        DICPCG:  Solving for e, Initial residual = 0.0023897098, Final residual = 9.369665e-08, No Iterations 5
die        DICPCG:  Solving for e, Initial residual = 0.017438796, Final residual = 6.0192648e-08, No Iterations 14
die        DICPCG:  Solving for e, Initial residual = 0.012975916, Final residual = 6.966284e-08, No Iterations 13
fluid      GAMG:  Solving for p_rgh, Initial residual = 1.0032867e-06, Final residual = 7.4336789e-07, No Iterations 1
fluid      GAMG:  Solving for p_rgh, Initial residual = 1.1444974e-06, Final residual = 5.2191177e-07, No Iterations 1
fluid      time step continuity errors : sum local = 0.13111843, global = -7.4194912e-05, cumulative = -0.0005711533
fluid      DILUPBiCGStab:  Solving for omega, Initial residual = 7.6389396e-08, Final residual = 7.6389396e-08, No Iterations 0
fluid      DILUPBiCGStab:  Solving for k, Initial residual = 9.8738945e-08, Final residual = 9.8738945e-08, No Iterations 0
           ExecutionTime = 1065.0726 s  ClockTime = 2119 s
           
           Time = 5020s
           
fluid      DILUPBiCGStab:  Solving for h, Initial residual = 0.00067660009, Final residual = 6.2607698e-06, No Iterations 4
cold_plate DICPCG:  Solving for e, Initial residual = 0.00085173126, Final residual = 6.924267e-08, No Iterations 13
cold_plate DICPCG:  Solving for e, Initial residual = 0.00078922282, Final residual = 5.7656649e-08, No Iterations 13
tim        DICPCG:  Solving for e, Initial residual = 0.015854002, Final residual = 1.4462954e-08, No Iterations 7
tim        DICPCG:  Solving for e, Initial residual = 0.0022627518, Final residual = 8.8681503e-08, No Iterations 5
die        DICPCG:  Solving for e, Initial residual = 0.016171738, Final residual = 5.5856478e-08, No Iterations 14
die        DICPCG:  Solving for e, Initial residual = 0.012044442, Final residual = 6.4698278e-08, No Iterations 13
fluid      GAMG:  Solving for p_rgh, Initial residual = 1.1217718e-06, Final residual = 3.3178045e-07, No Iterations 1
fluid      GAMG:  Solving for p_rgh, Initial residual = 5.597374e-07, Final residual = 5.597374e-07, No Iterations 0
fluid      time step continuity errors : sum local = 0.14062126, global = -9.2963292e-05, cumulative = -0.00066411659
fluid      DILUPBiCGStab:  Solving for omega, Initial residual = 7.6389289e-08, Final residual = 7.6389289e-08, No Iterations 0
fluid      DILUPBiCGStab:  Solving for k, Initial residual = 9.9512481e-08, Final residual = 9.9512481e-08, No Iterations 0
           ExecutionTime = 1099.1844 s  ClockTime = 2187 s
           
           Time = 5021s
           
fluid      DILUPBiCGStab:  Solving for h, Initial residual = 0.0006868484, Final residual = 6.1216624e-06, No Iterations 3
cold_plate DICPCG:  Solving for e, Initial residual = 0.00082600494, Final residual = 6.742864e-08, No Iterations 13
cold_plate DICPCG:  Solving for e, Initial residual = 0.00076431491, Final residual = 5.6001555e-08, No Iterations 13
tim        DICPCG:  Solving for e, Initial residual = 0.014978429, Final residual = 1.3851999e-08, No Iterations 7
tim        DICPCG:  Solving for e, Initial residual = 0.002143385, Final residual = 8.3983073e-08, No Iterations 5
die        DICPCG:  Solving for e, Initial residual = 0.015036235, Final residual = 5.1966793e-08, No Iterations 14
die        DICPCG:  Solving for e, Initial residual = 0.01120821, Final residual = 6.0236589e-08, No Iterations 13
fluid      GAMG:  Solving for p_rgh, Initial residual = 8.5225795e-07, Final residual = 8.5225795e-07, No Iterations 0
fluid      GAMG:  Solving for p_rgh, Initial residual = 8.5225795e-07, Final residual = 8.5225795e-07, No Iterations 0
fluid      time step continuity errors : sum local = 0.21411038, global = -0.00010590385, cumulative = -0.00077002045
fluid      DILUPBiCGStab:  Solving for omega, Initial residual = 7.6389689e-08, Final residual = 7.6389689e-08, No Iterations 0
fluid      DILUPBiCGStab:  Solving for k, Initial residual = 9.9696057e-08, Final residual = 9.9696057e-08, No Iterations 0
           ExecutionTime = 1118.9797 s  ClockTime = 2227 s
           
           Time = 5022s
           
fluid      DILUPBiCGStab:  Solving for h, Initial residual = 0.00069511278, Final residual = 5.2222066e-06, No Iterations 3
cold_plate DICPCG:  Solving for e, Initial residual = 0.00080113528, Final residual = 6.5612852e-08, No Iterations 13
cold_plate DICPCG:  Solving for e, Initial residual = 0.00074048642, Final residual = 5.4371717e-08, No Iterations 13
tim        DICPCG:  Solving for e, Initial residual = 0.014164614, Final residual = 1.3262634e-08, No Iterations 7
tim        DICPCG:  Solving for e, Initial residual = 0.0020312337, Final residual = 7.9571925e-08, No Iterations 5
die        DICPCG:  Solving for e, Initial residual = 0.014013614, Final residual = 9.8140292e-08, No Iterations 13
die        DICPCG:  Solving for e, Initial residual = 0.01045391, Final residual = 5.6131334e-08, No Iterations 13
fluid      GAMG:  Solving for p_rgh, Initial residual = 1.2497723e-06, Final residual = 8.732672e-07, No Iterations 1
fluid      GAMG:  Solving for p_rgh, Initial residual = 1.4388447e-06, Final residual = 4.6562843e-07, No Iterations 1
fluid      time step continuity errors : sum local = 0.11697854, global = -2.1790098e-05, cumulative = -0.00079181054
fluid      DILUPBiCGStab:  Solving for omega, Initial residual = 7.6389456e-08, Final residual = 7.6389456e-08, No Iterations 0
fluid      DILUPBiCGStab:  Solving for k, Initial residual = 1.0009487e-07, Final residual = 1.9457534e-09, No Iterations 1
fluid      bounding k, min: 1.5434748e-16 max: 0.54722952 average: 0.00032198133
           ExecutionTime = 1163.8059 s  ClockTime = 2317 s
           
           Time = 5023s
           
fluid      DILUPBiCGStab:  Solving for h, Initial residual = 0.00070180543, Final residual = 5.3990923e-06, No Iterations 4
cold_plate DICPCG:  Solving for e, Initial residual = 0.00077730663, Final residual = 6.3828158e-08, No Iterations 13
cold_plate DICPCG:  Solving for e, Initial residual = 0.00071780484, Final residual = 5.2784369e-08, No Iterations 13
tim        DICPCG:  Solving for e, Initial residual = 0.013407323, Final residual = 1.2696293e-08, No Iterations 7
tim        DICPCG:  Solving for e, Initial residual = 0.0019258774, Final residual = 7.542878e-08, No Iterations 5
die        DICPCG:  Solving for e, Initial residual = 0.013088557, Final residual = 9.1723816e-08, No Iterations 13
die        DICPCG:  Solving for e, Initial residual = 0.0097705838, Final residual = 5.2483497e-08, No Iterations 13
fluid      GAMG:  Solving for p_rgh, Initial residual = 1.2434733e-06, Final residual = 5.4747096e-07, No Iterations 1
fluid      GAMG:  Solving for p_rgh, Initial residual = 8.8362739e-07, Final residual = 8.8362739e-07, No Iterations 0
fluid      time step continuity errors : sum local = 0.22199127, global = 2.6279803e-05, cumulative = -0.00076553074
fluid      DILUPBiCGStab:  Solving for omega, Initial residual = 7.6389723e-08, Final residual = 7.6389723e-08, No Iterations 0
fluid      DILUPBiCGStab:  Solving for k, Initial residual = 9.8368682e-08, Final residual = 9.8368682e-08, No Iterations 0
           ExecutionTime = 1194.7163 s  ClockTime = 2380 s
           
           Time = 5024s
           
fluid      DILUPBiCGStab:  Solving for h, Initial residual = 0.00070635494, Final residual = 6.3678981e-06, No Iterations 3
cold_plate DICPCG:  Solving for e, Initial residual = 0.00075450745, Final residual = 6.2081232e-08, No Iterations 13
cold_plate DICPCG:  Solving for e, Initial residual = 0.00069624132, Final residual = 9.8548833e-08, No Iterations 12
tim        DICPCG:  Solving for e, Initial residual = 0.012701771, Final residual = 1.2154258e-08, No Iterations 7
tim        DICPCG:  Solving for e, Initial residual = 0.0018269276, Final residual = 7.153724e-08, No Iterations 5
die        DICPCG:  Solving for e, Initial residual = 0.012248414, Final residual = 8.5891685e-08, No Iterations 13
die        DICPCG:  Solving for e, Initial residual = 0.0091491514, Final residual = 4.9163746e-08, No Iterations 13
fluid      GAMG:  Solving for p_rgh, Initial residual = 1.1972477e-06, Final residual = 6.8277849e-07, No Iterations 2
fluid      GAMG:  Solving for p_rgh, Initial residual = 1.1699116e-06, Final residual = 5.8341495e-07, No Iterations 1
fluid      time step continuity errors : sum local = 0.14656971, global = 8.4330394e-05, cumulative = -0.00068120035
fluid      DILUPBiCGStab:  Solving for omega, Initial residual = 7.6389608e-08, Final residual = 7.6389608e-08, No Iterations 0
fluid      DILUPBiCGStab:  Solving for k, Initial residual = 9.8203301e-08, Final residual = 9.8203301e-08, No Iterations 0
           ExecutionTime = 1251.6841 s  ClockTime = 2495 s
           
           Time = 5025s
           
fluid      DILUPBiCGStab:  Solving for h, Initial residual = 0.00070938442, Final residual = 6.4850615e-06, No Iterations 3
cold_plate DICPCG:  Solving for e, Initial residual = 0.00073270435, Final residual = 6.157943e-08, No Iterations 13
cold_plate DICPCG:  Solving for e, Initial residual = 0.00067577151, Final residual = 9.6009514e-08, No Iterations 12
tim        DICPCG:  Solving for e, Initial residual = 0.012043003, Final residual = 1.1635526e-08, No Iterations 7
tim        DICPCG:  Solving for e, Initial residual = 0.0017340384, Final residual = 6.78831e-08, No Iterations 5
die        DICPCG:  Solving for e, Initial residual = 0.011482608, Final residual = 8.057123e-08, No Iterations 13
die        DICPCG:  Solving for e, Initial residual = 0.0085820183, Final residual = 4.6131869e-08, No Iterations 13
fluid      GAMG:  Solving for p_rgh, Initial residual = 1.1515703e-06, Final residual = 5.4508363e-07, No Iterations 1
fluid      GAMG:  Solving for p_rgh, Initial residual = 8.7383015e-07, Final residual = 8.7383015e-07, No Iterations 0
fluid      time step continuity errors : sum local = 0.21952991, global = 0.00012036401, cumulative = -0.00056083634
fluid      DILUPBiCGStab:  Solving for omega, Initial residual = 7.6389591e-08, Final residual = 7.6389591e-08, No Iterations 0
fluid      DILUPBiCGStab:  Solving for k, Initial residual = 9.8928091e-08, Final residual = 9.8928091e-08, No Iterations 0
           ExecutionTime = 1286.4923 s  ClockTime = 2565 s
           
           Time = 5026s
           
fluid      DILUPBiCGStab:  Solving for h, Initial residual = 0.0007118254, Final residual = 5.0075078e-06, No Iterations 4
cold_plate DICPCG:  Solving for e, Initial residual = 0.00071214816, Final residual = 5.999234e-08, No Iterations 13
cold_plate DICPCG:  Solving for e, Initial residual = 0.00065662895, Final residual = 9.3250386e-08, No Iterations 12
tim        DICPCG:  Solving for e, Initial residual = 0.011427134, Final residual = 1.1140524e-08, No Iterations 7
tim        DICPCG:  Solving for e, Initial residual = 0.0016468244, Final residual = 6.445052e-08, No Iterations 5
die        DICPCG:  Solving for e, Initial residual = 0.010782245, Final residual = 7.5701773e-08, No Iterations 13
die        DICPCG:  Solving for e, Initial residual = 0.0080627692, Final residual = 4.335411e-08, No Iterations 13
fluid      GAMG:  Solving for p_rgh, Initial residual = 1.1781374e-06, Final residual = 6.8627076e-07, No Iterations 1
fluid      GAMG:  Solving for p_rgh, Initial residual = 1.0782824e-06, Final residual = 6.2515062e-07, No Iterations 1
fluid      time step continuity errors : sum local = 0.15705483, global = 9.4104707e-05, cumulative = -0.00046673163
fluid      DILUPBiCGStab:  Solving for omega, Initial residual = 7.6389605e-08, Final residual = 7.6389605e-08, No Iterations 0
fluid      DILUPBiCGStab:  Solving for k, Initial residual = 9.8772888e-08, Final residual = 9.8772888e-08, No Iterations 0
           ExecutionTime = 1336.8878 s  ClockTime = 2665 s
           
           Time = 5027s
           
fluid      DILUPBiCGStab:  Solving for h, Initial residual = 0.00071192055, Final residual = 5.8826913e-06, No Iterations 3
cold_plate DICPCG:  Solving for e, Initial residual = 0.00069276855, Final residual = 5.8457243e-08, No Iterations 13
cold_plate DICPCG:  Solving for e, Initial residual = 0.00063871142, Final residual = 9.062706e-08, No Iterations 12
tim        DICPCG:  Solving for e, Initial residual = 0.010850946, Final residual = 1.0671831e-08, No Iterations 7
tim        DICPCG:  Solving for e, Initial residual = 0.0015649045, Final residual = 6.1224295e-08, No Iterations 5
die        DICPCG:  Solving for e, Initial residual = 0.010139792, Final residual = 7.1231857e-08, No Iterations 13
die        DICPCG:  Solving for e, Initial residual = 0.0075859599, Final residual = 9.6279446e-08, No Iterations 12
fluid      GAMG:  Solving for p_rgh, Initial residual = 1.3808467e-06, Final residual = 3.959455e-07, No Iterations 1
fluid      GAMG:  Solving for p_rgh, Initial residual = 7.1974285e-07, Final residual = 7.1974285e-07, No Iterations 0
fluid      time step continuity errors : sum local = 0.18081892, global = 0.00014253886, cumulative = -0.00032419277
fluid      DILUPBiCGStab:  Solving for omega, Initial residual = 7.6389441e-08, Final residual = 7.6389441e-08, No Iterations 0
fluid      DILUPBiCGStab:  Solving for k, Initial residual = 9.9487685e-08, Final residual = 9.9487685e-08, No Iterations 0
           ExecutionTime = 1370.8995 s  ClockTime = 2733 s
           
           Time = 5028s
           
fluid      DILUPBiCGStab:  Solving for h, Initial residual = 0.00071107922, Final residual = 5.1811853e-06, No Iterations 4
cold_plate DICPCG:  Solving for e, Initial residual = 0.00067460344, Final residual = 5.6983956e-08, No Iterations 13
cold_plate DICPCG:  Solving for e, Initial residual = 0.00062198593, Final residual = 8.814457e-08, No Iterations 12
tim        DICPCG:  Solving for e, Initial residual = 0.010311105, Final residual = 1.0226108e-08, No Iterations 7
tim        DICPCG:  Solving for e, Initial residual = 0.0014879081, Final residual = 5.8189962e-08, No Iterations 5
die        DICPCG:  Solving for e, Initial residual = 0.0095488251, Final residual = 6.7127406e-08, No Iterations 13
die        DICPCG:  Solving for e, Initial residual = 0.0071469425, Final residual = 9.0723543e-08, No Iterations 12
fluid      GAMG:  Solving for p_rgh, Initial residual = 9.8856515e-07, Final residual = 9.8856515e-07, No Iterations 0
fluid      GAMG:  Solving for p_rgh, Initial residual = 9.8856515e-07, Final residual = 9.8856515e-07, No Iterations 0
fluid      time step continuity errors : sum local = 0.24835436, global = 0.00019062873, cumulative = -0.00013356404
fluid      DILUPBiCGStab:  Solving for omega, Initial residual = 7.6389811e-08, Final residual = 7.6389811e-08, No Iterations 0
fluid      DILUPBiCGStab:  Solving for k, Initial residual = 9.9906942e-08, Final residual = 9.9906942e-08, No Iterations 0
           ExecutionTime = 1389.9924 s  ClockTime = 2773 s
           
           Time = 5029s
           
fluid      DILUPBiCGStab:  Solving for h, Initial residual = 0.00070911988, Final residual = 6.8075429e-06, No Iterations 3
cold_plate DICPCG:  Solving for e, Initial residual = 0.00065755724, Final residual = 5.5573145e-08, No Iterations 13
cold_plate DICPCG:  Solving for e, Initial residual = 0.00060635359, Final residual = 8.5799947e-08, No Iterations 12
tim        DICPCG:  Solving for e, Initial residual = 0.0098048528, Final residual = 9.8023635e-09, No Iterations 7
tim        DICPCG:  Solving for e, Initial residual = 0.0014155009, Final residual = 5.5334403e-08, No Iterations 5
die        DICPCG:  Solving for e, Initial residual = 0.0090038235, Final residual = 6.3330253e-08, No Iterations 13
die        DICPCG:  Solving for e, Initial residual = 0.0067417174, Final residual = 8.5571034e-08, No Iterations 12
fluid      GAMG:  Solving for p_rgh, Initial residual = 1.3222782e-06, Final residual = 6.8021063e-07, No Iterations 2
fluid      GAMG:  Solving for p_rgh, Initial residual = 1.6041537e-06, Final residual = 4.0212182e-07, No Iterations 1
fluid      time step continuity errors : sum local = 0.10102389, global = -3.0964266e-05, cumulative = -0.00016452831
fluid      DILUPBiCGStab:  Solving for omega, Initial residual = 7.6389318e-08, Final residual = 7.6389318e-08, No Iterations 0
fluid      DILUPBiCGStab:  Solving for k, Initial residual = 1.0008644e-07, Final residual = 1.9463899e-09, No Iterations 1
fluid      bounding k, min: 1.5436745e-16 max: 0.54722952 average: 0.00032198149
           ExecutionTime = 1450.0782 s  ClockTime = 2895 s
           
           Time = 5030s
           
fluid      DILUPBiCGStab:  Solving for h, Initial residual = 0.00070627114, Final residual = 6.8738106e-06, No Iterations 4
cold_plate DICPCG:  Solving for e, Initial residual = 0.00064156275, Final residual = 5.4227781e-08, No Iterations 13
cold_plate DICPCG:  Solving for e, Initial residual = 0.00059174666, Final residual = 8.3590423e-08, No Iterations 12
tim        DICPCG:  Solving for e, Initial residual = 0.0093297156, Final residual = 9.3996911e-09, No Iterations 7
tim        DICPCG:  Solving for e, Initial residual = 0.0013473711, Final residual = 5.2645595e-08, No Iterations 5
die        DICPCG:  Solving for e, Initial residual = 0.0085000264, Final residual = 5.9818124e-08, No Iterations 13
die        DICPCG:  Solving for e, Initial residual = 0.0063668231, Final residual = 8.0802618e-08, No Iterations 12
fluid      GAMG:  Solving for p_rgh, Initial residual = 1.0225026e-06, Final residual = 2.9398257e-07, No Iterations 1
fluid      GAMG:  Solving for p_rgh, Initial residual = 4.8572075e-07, Final residual = 4.8572075e-07, No Iterations 0
fluid      time step continuity errors : sum local = 0.1220262, global = -4.4544733e-05, cumulative = -0.00020907304
fluid      DILUPBiCGStab:  Solving for omega, Initial residual = 7.638932e-08, Final residual = 7.638932e-08, No Iterations 0
fluid      DILUPBiCGStab:  Solving for k, Initial residual = 9.8606016e-08, Final residual = 9.8606016e-08, No Iterations 0
           ExecutionTime = 1482.762 s  ClockTime = 2961 s
           
           Time = 5031s
           
fluid      DILUPBiCGStab:  Solving for h, Initial residual = 0.00070260558, Final residual = 6.9301289e-06, No Iterations 3
cold_plate DICPCG:  Solving for e, Initial residual = 0.00062653438, Final residual = 9.9214544e-08, No Iterations 12
cold_plate DICPCG:  Solving for e, Initial residual = 0.00057808031, Final residual = 8.7187151e-08, No Iterations 12
tim        DICPCG:  Solving for e, Initial residual = 0.008883387, Final residual = 9.0172175e-09, No Iterations 7
tim        DICPCG:  Solving for e, Initial residual = 0.0012832469, Final residual = 5.0112925e-08, No Iterations 5
die        DICPCG:  Solving for e, Initial residual = 0.0080333023, Final residual = 5.6562682e-08, No Iterations 13
die        DICPCG:  Solving for e, Initial residual = 0.0060192518, Final residual = 7.6380471e-08, No Iterations 12
fluid      GAMG:  Solving for p_rgh, Initial residual = 8.270984e-07, Final residual = 8.270984e-07, No Iterations 0
fluid      GAMG:  Solving for p_rgh, Initial residual = 8.270984e-07, Final residual = 8.270984e-07, No Iterations 0
fluid      time step continuity errors : sum local = 0.2077895, global = -0.00011170878, cumulative = -0.00032078182
fluid      DILUPBiCGStab:  Solving for omega, Initial residual = 7.6389701e-08, Final residual = 7.6389701e-08, No Iterations 0
fluid      DILUPBiCGStab:  Solving for k, Initial residual = 9.8925636e-08, Final residual = 9.8925636e-08, No Iterations 0
           ExecutionTime = 1503.2742 s  ClockTime = 3000 s
           
           Time = 5032s
           
fluid      DILUPBiCGStab:  Solving for h, Initial residual = 0.00069852748, Final residual = 6.2700417e-06, No Iterations 4
cold_plate DICPCG:  Solving for e, Initial residual = 0.00061245494, Final residual = 9.6986406e-08, No Iterations 12
cold_plate DICPCG:  Solving for e, Initial residual = 0.0005653434, Final residual = 8.526094e-08, No Iterations 12
tim        DICPCG:  Solving for e, Initial residual = 0.008463791, Final residual = 8.6542383e-09, No Iterations 7
tim        DICPCG:  Solving for e, Initial residual = 0.0012228536, Final residual = 4.7725975e-08, No Iterations 5
die        DICPCG:  Solving for e, Initial residual = 0.0076000462, Final residual = 5.3539121e-08, No Iterations 13
die        DICPCG:  Solving for e, Initial residual = 0.0056963766, Final residual = 7.2271444e-08, No Iterations 12
fluid      GAMG:  Solving for p_rgh, Initial residual = 1.2713714e-06, Final residual = 7.5404527e-07, No Iterations 2
fluid      GAMG:  Solving for p_rgh, Initial residual = 1.6811814e-06, Final residual = 5.7851995e-07, No Iterations 1
fluid      time step continuity errors : sum local = 0.14533988, global = 7.2562603e-05, cumulative = -0.00024821921
fluid      DILUPBiCGStab:  Solving for omega, Initial residual = 7.6389599e-08, Final residual = 7.6389599e-08, No Iterations 0
fluid      DILUPBiCGStab:  Solving for k, Initial residual = 9.9098484e-08, Final residual = 9.9098484e-08, No Iterations 0
           ExecutionTime = 1567.9814 s  ClockTime = 3131 s
           
           Time = 5033s
           
fluid      DILUPBiCGStab:  Solving for h, Initial residual = 0.00069378846, Final residual = 4.0004653e-06, No Iterations 4
cold_plate DICPCG:  Solving for e, Initial residual = 0.00059921972, Final residual = 9.4805388e-08, No Iterations 12
cold_plate DICPCG:  Solving for e, Initial residual = 0.00055340321, Final residual = 8.3393628e-08, No Iterations 12
tim        DICPCG:  Solving for e, Initial residual = 0.0080690119, Final residual = 8.3087702e-09, No Iterations 7
tim        DICPCG:  Solving for e, Initial residual = 0.0011659395, Final residual = 4.547527e-08, No Iterations 5
die        DICPCG:  Solving for e, Initial residual = 0.0071971008, Final residual = 5.0725713e-08, No Iterations 13
die        DICPCG:  Solving for e, Initial residual = 0.0053958922, Final residual = 6.8446478e-08, No Iterations 12
fluid      GAMG:  Solving for p_rgh, Initial residual = 1.2435079e-06, Final residual = 4.6595622e-07, No Iterations 1
fluid      GAMG:  Solving for p_rgh, Initial residual = 7.4598963e-07, Final residual = 7.4598963e-07, No Iterations 0
fluid      time step continuity errors : sum local = 0.1874128, global = -2.3059611e-05, cumulative = -0.00027127883
fluid      DILUPBiCGStab:  Solving for omega, Initial residual = 7.6389464e-08, Final residual = 7.6389464e-08, No Iterations 0
fluid      DILUPBiCGStab:  Solving for k, Initial residual = 9.9075662e-08, Final residual = 9.9075662e-08, No Iterations 0
           ExecutionTime = 1601.84 s  ClockTime = 3197 s
           
           Time = 5034s
           
fluid      DILUPBiCGStab:  Solving for h, Initial residual = 0.00068902856, Final residual = 6.3617985e-06, No Iterations 3
cold_plate DICPCG:  Solving for e, Initial residual = 0.00058684613, Final residual = 9.2730956e-08, No Iterations 12
cold_plate DICPCG:  Solving for e, Initial residual = 0.00054226895, Final residual = 8.1619411e-08, No Iterations 12
tim        DICPCG:  Solving for e, Initial residual = 0.0076972683, Final residual = 7.9798948e-09, No Iterations 7
tim        DICPCG:  Solving for e, Initial residual = 0.0011122682, Final residual = 4.3351739e-08, No Iterations 5
die        DICPCG:  Solving for e, Initial residual = 0.0068216881, Final residual = 4.8103303e-08, No Iterations 13
die        DICPCG:  Solving for e, Initial residual = 0.0051157691, Final residual = 6.4879924e-08, No Iterations 12
fluid      GAMG:  Solving for p_rgh, Initial residual = 1.0420987e-06, Final residual = 4.8384444e-07, No Iterations 2
fluid      GAMG:  Solving for p_rgh, Initial residual = 1.1326839e-06, Final residual = 3.2665823e-07, No Iterations 1
fluid      time step continuity errors : sum local = 0.082065422, global = 1.5081629e-05, cumulative = -0.0002561972
fluid      DILUPBiCGStab:  Solving for omega, Initial residual = 7.638933e-08, Final residual = 7.638933e-08, No Iterations 0
fluid      DILUPBiCGStab:  Solving for k, Initial residual = 9.9683935e-08, Final residual = 9.9683935e-08, No Iterations 0
           ExecutionTime = 1657.0026 s  ClockTime = 3310 s
           
           Time = 5035s
           
fluid      DILUPBiCGStab:  Solving for h, Initial residual = 0.00068352024, Final residual = 5.9086534e-06, No Iterations 4
cold_plate DICPCG:  Solving for e, Initial residual = 0.00057524405, Final residual = 9.0754767e-08, No Iterations 12
cold_plate DICPCG:  Solving for e, Initial residual = 0.00053187115, Final residual = 7.9933109e-08, No Iterations 12
tim        DICPCG:  Solving for e, Initial residual = 0.0073469173, Final residual = 7.6668203e-09, No Iterations 7
tim        DICPCG:  Solving for e, Initial residual = 0.0010616182, Final residual = 4.1346952e-08, No Iterations 5
die        DICPCG:  Solving for e, Initial residual = 0.0064713547, Final residual = 4.5654967e-08, No Iterations 13
die        DICPCG:  Solving for e, Initial residual = 0.0048542118, Final residual = 6.1549094e-08, No Iterations 12
fluid      GAMG:  Solving for p_rgh, Initial residual = 8.2987263e-07, Final residual = 8.2987263e-07, No Iterations 0
fluid      GAMG:  Solving for p_rgh, Initial residual = 8.2987263e-07, Final residual = 8.2987263e-07, No Iterations 0
fluid      time step continuity errors : sum local = 0.20848656, global = 6.9092417e-06, cumulative = -0.00024928795
fluid      DILUPBiCGStab:  Solving for omega, Initial residual = 7.6389659e-08, Final residual = 7.6389659e-08, No Iterations 0
fluid      DILUPBiCGStab:  Solving for k, Initial residual = 1.0001663e-07, Final residual = 1.9207285e-09, No Iterations 1
fluid      bounding k, min: 1.5420935e-16 max: 0.54722952 average: 0.00032198164
           ExecutionTime = 1677.7889 s  ClockTime = 3351 s
           
           Time = 5036s
           
fluid      DILUPBiCGStab:  Solving for h, Initial residual = 0.00067755639, Final residual = 4.361234e-06, No Iterations 4
cold_plate DICPCG:  Solving for e, Initial residual = 0.00056431435, Final residual = 8.8865628e-08, No Iterations 12
cold_plate DICPCG:  Solving for e, Initial residual = 0.00052210857, Final residual = 7.8324331e-08, No Iterations 12
tim        DICPCG:  Solving for e, Initial residual = 0.0070164374, Final residual = 7.3687545e-09, No Iterations 7
tim        DICPCG:  Solving for e, Initial residual = 0.0010137834, Final residual = 3.9452979e-08, No Iterations 5
die        DICPCG:  Solving for e, Initial residual = 0.0061439253, Final residual = 4.3365693e-08, No Iterations 13
die        DICPCG:  Solving for e, Initial residual = 0.0046096249, Final residual = 5.8433748e-08, No Iterations 12
fluid      GAMG:  Solving for p_rgh, Initial residual = 1.2153989e-06, Final residual = 5.4472688e-07, No Iterations 1
fluid      GAMG:  Solving for p_rgh, Initial residual = 9.4711936e-07, Final residual = 9.4711936e-07, No Iterations 0
fluid      time step continuity errors : sum local = 0.23794217, global = 5.3085231e-06, cumulative = -0.00024397943
fluid      DILUPBiCGStab:  Solving for omega, Initial residual = 7.6389653e-08, Final residual = 7.6389653e-08, No Iterations 0
fluid      DILUPBiCGStab:  Solving for k, Initial residual = 9.8882605e-08, Final residual = 9.8882605e-08, No Iterations 0
           ExecutionTime = 1709.988 s  ClockTime = 3416 s
           
           Time = 5037s
           
fluid      DILUPBiCGStab:  Solving for h, Initial residual = 0.00067170332, Final residual = 5.7840991e-06, No Iterations 3
cold_plate DICPCG:  Solving for e, Initial residual = 0.00055405038, Final residual = 8.7063038e-08, No Iterations 12
cold_plate DICPCG:  Solving for e, Initial residual = 0.00051296662, Final residual = 7.6791801e-08, No Iterations 12
tim        DICPCG:  Solving for e, Initial residual = 0.0067044204, Final residual = 7.0848993e-09, No Iterations 7
tim        DICPCG:  Solving for e, Initial residual = 0.00096858203, Final residual = 3.7662759e-08, No Iterations 5
die        DICPCG:  Solving for e, Initial residual = 0.0058374648, Final residual = 4.1222116e-08, No Iterations 13
die        DICPCG:  Solving for e, Initial residual = 0.0043805877, Final residual = 5.5515907e-08, No Iterations 12
fluid      GAMG:  Solving for p_rgh, Initial residual = 1.259898e-06, Final residual = 4.4569325e-07, No Iterations 1
fluid      GAMG:  Solving for p_rgh, Initial residual = 7.6233499e-07, Final residual = 7.6233499e-07, No Iterations 0
fluid      time step continuity errors : sum local = 0.19151933, global = 4.7824013e-05, cumulative = -0.00019615542
fluid      DILUPBiCGStab:  Solving for omega, Initial residual = 7.6389796e-08, Final residual = 7.6389796e-08, No Iterations 0
fluid      DILUPBiCGStab:  Solving for k, Initial residual = 9.8408074e-08, Final residual = 9.8408074e-08, No Iterations 0
           ExecutionTime = 1742.2622 s  ClockTime = 3481 s
           
           Time = 5038s
           
fluid      DILUPBiCGStab:  Solving for h, Initial residual = 0.00066562129, Final residual = 4.9961047e-06, No Iterations 4
cold_plate DICPCG:  Solving for e, Initial residual = 0.00054443949, Final residual = 8.5341961e-08, No Iterations 12
cold_plate DICPCG:  Solving for e, Initial residual = 0.0005044505, Final residual = 7.5332229e-08, No Iterations 12
tim        DICPCG:  Solving for e, Initial residual = 0.0064096447, Final residual = 6.8144718e-09, No Iterations 7
tim        DICPCG:  Solving for e, Initial residual = 0.00092583663, Final residual = 3.5969334e-08, No Iterations 5
die        DICPCG:  Solving for e, Initial residual = 0.005550244, Final residual = 3.9212297e-08, No Iterations 13
die        DICPCG:  Solving for e, Initial residual = 0.0041658302, Final residual = 5.2779538e-08, No Iterations 12
fluid      GAMG:  Solving for p_rgh, Initial residual = 1.0858608e-06, Final residual = 6.2278677e-07, No Iterations 2
fluid      GAMG:  Solving for p_rgh, Initial residual = 1.2227521e-06, Final residual = 4.8985153e-07, No Iterations 1
fluid      time step continuity errors : sum local = 0.12306404, global = 2.9219405e-05, cumulative = -0.00016693601
fluid      DILUPBiCGStab:  Solving for omega, Initial residual = 7.6389733e-08, Final residual = 7.6389733e-08, No Iterations 0
fluid      DILUPBiCGStab:  Solving for k, Initial residual = 9.9431548e-08, Final residual = 9.9431548e-08, No Iterations 0
           ExecutionTime = 1797.2631 s  ClockTime = 3591 s
           
           Time = 5039s
           
fluid      DILUPBiCGStab:  Solving for h, Initial residual = 0.00065913631, Final residual = 6.1830956e-06, No Iterations 3
cold_plate DICPCG:  Solving for e, Initial residual = 0.00053542669, Final residual = 8.3693659e-08, No Iterations 12
cold_plate DICPCG:  Solving for e, Initial residual = 0.00049650335, Final residual = 7.3938041e-08, No Iterations 12
tim        DICPCG:  Solving for e, Initial residual = 0.0061309092, Final residual = 6.5566945e-09, No Iterations 7
tim        DICPCG:  Solving for e, Initial residual = 0.00088539156, Final residual = 9.9310611e-08, No Iterations 4
die        DICPCG:  Solving for e, Initial residual = 0.0052807206, Final residual = 3.7325572e-08, No Iterations 13
die        DICPCG:  Solving for e, Initial residual = 0.0039642167, Final residual = 5.0210336e-08, No Iterations 12
fluid      GAMG:  Solving for p_rgh, Initial residual = 1.0971223e-06, Final residual = 5.3663442e-07, No Iterations 1
fluid      GAMG:  Solving for p_rgh, Initial residual = 8.6643169e-07, Final residual = 8.6643169e-07, No Iterations 0
fluid      time step continuity errors : sum local = 0.21767123, global = 6.5662366e-05, cumulative = -0.00010127365
fluid      DILUPBiCGStab:  Solving for omega, Initial residual = 7.6389847e-08, Final residual = 7.6389847e-08, No Iterations 0
fluid      DILUPBiCGStab:  Solving for k, Initial residual = 9.8912332e-08, Final residual = 9.8912332e-08, No Iterations 0
           ExecutionTime = 1829.9123 s  ClockTime = 3658 s
           
           Time = 5040s
           
fluid      DILUPBiCGStab:  Solving for h, Initial residual = 0.00065269014, Final residual = 4.8045302e-06, No Iterations 4
cold_plate DICPCG:  Solving for e, Initial residual = 0.00052700107, Final residual = 8.2113936e-08, No Iterations 12
cold_plate DICPCG:  Solving for e, Initial residual = 0.00048910417, Final residual = 7.2606965e-08, No Iterations 12
tim        DICPCG:  Solving for e, Initial residual = 0.0058671533, Final residual = 6.3084553e-09, No Iterations 7
tim        DICPCG:  Solving for e, Initial residual = 0.00084710118, Final residual = 9.5007636e-08, No Iterations 4
die        DICPCG:  Solving for e, Initial residual = 0.0050274908, Final residual = 3.5552179e-08, No Iterations 13
die        DICPCG:  Solving for e, Initial residual = 0.0037747171, Final residual = 4.7795148e-08, No Iterations 12
fluid      GAMG:  Solving for p_rgh, Initial residual = 1.1944233e-06, Final residual = 5.8502533e-07, No Iterations 2
fluid      GAMG:  Solving for p_rgh, Initial residual = 9.6961249e-07, Final residual = 9.6961249e-07, No Iterations 0
fluid      time step continuity errors : sum local = 0.243593, global = 5.5779096e-06, cumulative = -9.5695737e-05
fluid      DILUPBiCGStab:  Solving for omega, Initial residual = 7.6389798e-08, Final residual = 7.6389798e-08, No Iterations 0
fluid      DILUPBiCGStab:  Solving for k, Initial residual = 1.0003553e-07, Final residual = 1.986283e-09, No Iterations 1
fluid      bounding k, min: 1.5453345e-16 max: 0.54722952 average: 0.0003219818
           ExecutionTime = 1877.4702 s  ClockTime = 3753 s
           
           Time = 5041s
           
fluid      DILUPBiCGStab:  Solving for h, Initial residual = 0.00064621265, Final residual = 6.3276057e-06, No Iterations 3
cold_plate DICPCG:  Solving for e, Initial residual = 0.00051911357, Final residual = 8.0598165e-08, No Iterations 12
cold_plate DICPCG:  Solving for e, Initial residual = 0.00048220244, Final residual = 7.1334933e-08, No Iterations 12
tim        DICPCG:  Solving for e, Initial residual = 0.005617439, Final residual = 6.0733419e-09, No Iterations 7
tim        DICPCG:  Solving for e, Initial residual = 0.00081082486, Final residual = 9.1095166e-08, No Iterations 4
die        DICPCG:  Solving for e, Initial residual = 0.0047893095, Final residual = 3.3883541e-08, No Iterations 13
die        DICPCG:  Solving for e, Initial residual = 0.0035964105, Final residual = 4.5522324e-08, No Iterations 12
fluid      GAMG:  Solving for p_rgh, Initial residual = 1.2803019e-06, Final residual = 4.1525198e-07, No Iterations 1
fluid      GAMG:  Solving for p_rgh, Initial residual = 6.2860923e-07, Final residual = 6.2860923e-07, No Iterations 0
fluid      time step continuity errors : sum local = 0.15792371, global = 2.1370384e-05, cumulative = -7.4325353e-05
fluid      DILUPBiCGStab:  Solving for omega, Initial residual = 7.6389649e-08, Final residual = 7.6389649e-08, No Iterations 0
fluid      DILUPBiCGStab:  Solving for k, Initial residual = 9.7760697e-08, Final residual = 9.7760697e-08, No Iterations 0
           ExecutionTime = 1908.567 s  ClockTime = 3816 s
           
           Time = 5042s
           
fluid      DILUPBiCGStab:  Solving for h, Initial residual = 0.00063977833, Final residual = 4.932592e-06, No Iterations 4
cold_plate DICPCG:  Solving for e, Initial residual = 0.00051173595, Final residual = 7.9140523e-08, No Iterations 12
cold_plate DICPCG:  Solving for e, Initial residual = 0.00047575598, Final residual = 7.0118607e-08, No Iterations 12
tim        DICPCG:  Solving for e, Initial residual = 0.0053808365, Final residual = 5.849434e-09, No Iterations 7
tim        DICPCG:  Solving for e, Initial residual = 0.00077643965, Final residual = 8.7399576e-08, No Iterations 4
die        DICPCG:  Solving for e, Initial residual = 0.0045650444, Final residual = 9.9384239e-08, No Iterations 12
die        DICPCG:  Solving for e, Initial residual = 0.003428462, Final residual = 4.3591369e-08, No Iterations 12
fluid      GAMG:  Solving for p_rgh, Initial residual = 8.9853726e-07, Final residual = 8.9853726e-07, No Iterations 0
fluid      GAMG:  Solving for p_rgh, Initial residual = 8.9853726e-07, Final residual = 8.9853726e-07, No Iterations 0
fluid      time step continuity errors : sum local = 0.22573695, global = 2.572055e-05, cumulative = -4.8604803e-05
fluid      DILUPBiCGStab:  Solving for omega, Initial residual = 7.6389954e-08, Final residual = 7.6389954e-08, No Iterations 0
fluid      DILUPBiCGStab:  Solving for k, Initial residual = 9.870736e-08, Final residual = 9.870736e-08, No Iterations 0
           ExecutionTime = 1928.9481 s  ClockTime = 3856 s
           
           Time = 5043s
           
fluid      DILUPBiCGStab:  Solving for h, Initial residual = 0.00063338051, Final residual = 5.9276375e-06, No Iterations 4
cold_plate DICPCG:  Solving for e, Initial residual = 0.00050480708, Final residual = 7.7736354e-08, No Iterations 12
cold_plate DICPCG:  Solving for e, Initial residual = 0.00046970383, Final residual = 6.8953655e-08, No Iterations 12
tim        DICPCG:  Solving for e, Initial residual = 0.0051565099, Final residual = 9.7117195e-08, No Iterations 5
tim        DICPCG:  Solving for e, Initial residual = 0.00074384015, Final residual = 7.9382402e-08, No Iterations 4
die        DICPCG:  Solving for e, Initial residual = 0.00435367, Final residual = 9.4822211e-08, No Iterations 12
die        DICPCG:  Solving for e, Initial residual = 0.0032701151, Final residual = 4.156306e-08, No Iterations 12
fluid      GAMG:  Solving for p_rgh, Initial residual = 1.2201588e-06, Final residual = 5.6561145e-07, No Iterations 2
fluid      GAMG:  Solving for p_rgh, Initial residual = 1.3462609e-06, Final residual = 3.4191287e-07, No Iterations 1
fluid      time step continuity errors : sum local = 0.085897782, global = 5.8114929e-05, cumulative = 9.5101259e-06
fluid      DILUPBiCGStab:  Solving for omega, Initial residual = 7.6389564e-08, Final residual = 7.6389564e-08, No Iterations 0
fluid      DILUPBiCGStab:  Solving for k, Initial residual = 9.8387093e-08, Final residual = 9.8387093e-08, No Iterations 0
           ExecutionTime = 1989.2794 s  ClockTime = 3977 s
           
           Time = 5044s
           
fluid      DILUPBiCGStab:  Solving for h, Initial residual = 0.00062706188, Final residual = 2.8892314e-06, No Iterations 5
cold_plate DICPCG:  Solving for e, Initial residual = 0.0004982098, Final residual = 7.6374771e-08, No Iterations 12
cold_plate DICPCG:  Solving for e, Initial residual = 0.00046395623, Final residual = 6.7831148e-08, No Iterations 12
tim        DICPCG:  Solving for e, Initial residual = 0.0049437061, Final residual = 9.3176735e-08, No Iterations 5
tim        DICPCG:  Solving for e, Initial residual = 0.00071289725, Final residual = 7.6115741e-08, No Iterations 4
die        DICPCG:  Solving for e, Initial residual = 0.0041542597, Final residual = 9.0506269e-08, No Iterations 12
die        DICPCG:  Solving for e, Initial residual = 0.0031206836, Final residual = 9.9769897e-08, No Iterations 11
fluid      GAMG:  Solving for p_rgh, Initial residual = 8.3591107e-07, Final residual = 8.3591107e-07, No Iterations 0
fluid      GAMG:  Solving for p_rgh, Initial residual = 8.3591107e-07, Final residual = 8.3591107e-07, No Iterations 0
fluid      time step continuity errors : sum local = 0.21000348, global = 6.919808e-05, cumulative = 7.8708206e-05
fluid      DILUPBiCGStab:  Solving for omega, Initial residual = 7.6390022e-08, Final residual = 7.6390022e-08, No Iterations 0
fluid      DILUPBiCGStab:  Solving for k, Initial residual = 9.9381148e-08, Final residual = 9.9381148e-08, No Iterations 0
           ExecutionTime = 2009.3075 s  ClockTime = 4017 s
           
           Time = 5045s
           
fluid      DILUPBiCGStab:  Solving for h, Initial residual = 0.00062151711, Final residual = 3.7446666e-06, No Iterations 5
cold_plate DICPCG:  Solving for e, Initial residual = 0.00049201735, Final residual = 7.5060929e-08, No Iterations 12
cold_plate DICPCG:  Solving for e, Initial residual = 0.000458583, Final residual = 6.6755106e-08, No Iterations 12
tim        DICPCG:  Solving for e, Initial residual = 0.0047417025, Final residual = 8.9388497e-08, No Iterations 5
tim        DICPCG:  Solving for e, Initial residual = 0.00068351704, Final residual = 7.3094066e-08, No Iterations 4
die        DICPCG:  Solving for e, Initial residual = 0.0039659658, Final residual = 8.6322601e-08, No Iterations 12
die        DICPCG:  Solving for e, Initial residual = 0.002979542, Final residual = 9.5315043e-08, No Iterations 11
fluid      GAMG:  Solving for p_rgh, Initial residual = 1.2015774e-06, Final residual = 7.4647385e-07, No Iterations 1
fluid      GAMG:  Solving for p_rgh, Initial residual = 1.236659e-06, Final residual = 3.9730769e-07, No Iterations 1
fluid      time step continuity errors : sum local = 0.099814439, global = -2.0878477e-05, cumulative = 5.7829728e-05
fluid      DILUPBiCGStab:  Solving for omega, Initial residual = 7.6389766e-08, Final residual = 7.6389766e-08, No Iterations 0
fluid      DILUPBiCGStab:  Solving for k, Initial residual = 9.9096707e-08, Final residual = 9.9096707e-08, No Iterations 0
           ExecutionTime = 2055.4596 s  ClockTime = 4106 s
           
           Time = 5046s
           
fluid      DILUPBiCGStab:  Solving for h, Initial residual = 0.00061593469, Final residual = 5.5390708e-06, No Iterations 4
cold_plate DICPCG:  Solving for e, Initial residual = 0.00048628281, Final residual = 7.3797052e-08, No Iterations 12
cold_plate DICPCG:  Solving for e, Initial residual = 0.00045362596, Final residual = 6.5729174e-08, No Iterations 12
tim        DICPCG:  Solving for e, Initial residual = 0.0045498257, Final residual = 8.581446e-08, No Iterations 5
tim        DICPCG:  Solving for e, Initial residual = 0.0006556034, Final residual = 7.0227484e-08, No Iterations 4
die        DICPCG:  Solving for e, Initial residual = 0.0037880178, Final residual = 8.2474268e-08, No Iterations 12
die        DICPCG:  Solving for e, Initial residual = 0.0028461189, Final residual = 9.1093335e-08, No Iterations 11
fluid      GAMG:  Solving for p_rgh, Initial residual = 1.073507e-06, Final residual = 7.0550159e-07, No Iterations 1
fluid      GAMG:  Solving for p_rgh, Initial residual = 1.0748328e-06, Final residual = 5.9731573e-07, No Iterations 1
fluid      time step continuity errors : sum local = 0.15006187, global = -4.1297428e-05, cumulative = 1.65323e-05
fluid      DILUPBiCGStab:  Solving for omega, Initial residual = 7.6389987e-08, Final residual = 7.6389987e-08, No Iterations 0
fluid      DILUPBiCGStab:  Solving for k, Initial residual = 9.9550612e-08, Final residual = 9.9550612e-08, No Iterations 0
           ExecutionTime = 2101.0423 s  ClockTime = 4195 s
           
           Time = 5047s
           
fluid      DILUPBiCGStab:  Solving for h, Initial residual = 0.00060955052, Final residual = 5.386217e-06, No Iterations 4
cold_plate DICPCG:  Solving for e, Initial residual = 0.00048087751, Final residual = 7.2570593e-08, No Iterations 12
cold_plate DICPCG:  Solving for e, Initial residual = 0.00044896318, Final residual = 6.4742388e-08, No Iterations 12
tim        DICPCG:  Solving for e, Initial residual = 0.0043674624, Final residual = 8.2423196e-08, No Iterations 5
tim        DICPCG:  Solving for e, Initial residual = 0.00062906762, Final residual = 6.7499654e-08, No Iterations 4
die        DICPCG:  Solving for e, Initial residual = 0.0036197116, Final residual = 7.8832962e-08, No Iterations 12
die        DICPCG:  Solving for e, Initial residual = 0.0027198924, Final residual = 8.7097994e-08, No Iterations 11
fluid      GAMG:  Solving for p_rgh, Initial residual = 1.3347186e-06, Final residual = 6.3364336e-07, No Iterations 1
fluid      GAMG:  Solving for p_rgh, Initial residual = 1.0188425e-06, Final residual = 5.120009e-07, No Iterations 2
fluid      time step continuity errors : sum local = 0.12862848, global = -2.8404471e-05, cumulative = -1.1872171e-05
fluid      DILUPBiCGStab:  Solving for omega, Initial residual = 7.6389773e-08, Final residual = 7.6389773e-08, No Iterations 0
fluid      DILUPBiCGStab:  Solving for k, Initial residual = 9.9656099e-08, Final residual = 9.9656099e-08, No Iterations 0
           ExecutionTime = 2145.7346 s  ClockTime = 4277 s
           
           Time = 5048s
           
fluid      DILUPBiCGStab:  Solving for h, Initial residual = 0.00060333237, Final residual = 3.6393621e-06, No Iterations 4
cold_plate DICPCG:  Solving for e, Initial residual = 0.00047572937, Final residual = 7.1377822e-08, No Iterations 12
cold_plate DICPCG:  Solving for e, Initial residual = 0.00044452615, Final residual = 6.3787008e-08, No Iterations 12
tim        DICPCG:  Solving for e, Initial residual = 0.0041940361, Final residual = 7.9198854e-08, No Iterations 5
tim        DICPCG:  Solving for e, Initial residual = 0.00060382811, Final residual = 6.4901177e-08, No Iterations 4
die        DICPCG:  Solving for e, Initial residual = 0.003460402, Final residual = 7.5385218e-08, No Iterations 12
die        DICPCG:  Solving for e, Initial residual = 0.0026003846, Final residual = 8.3314315e-08, No Iterations 11
fluid      GAMG:  Solving for p_rgh, Initial residual = 1.1413104e-06, Final residual = 5.1013011e-07, No Iterations 1
fluid      GAMG:  Solving for p_rgh, Initial residual = 7.3671901e-07, Final residual = 7.3671901e-07, No Iterations 0
fluid      time step continuity errors : sum local = 0.18508377, global = -5.3529076e-05, cumulative = -6.5401247e-05
fluid      DILUPBiCGStab:  Solving for omega, Initial residual = 7.6389814e-08, Final residual = 7.6389814e-08, No Iterations 0
fluid      DILUPBiCGStab:  Solving for k, Initial residual = 1.0008438e-07, Final residual = 1.932608e-09, No Iterations 1
fluid      bounding k, min: 1.5430817e-16 max: 0.54722952 average: 0.00032198196
           ExecutionTime = 2167.6436 s  ClockTime = 4299 s
           
           Time = 5049s
           
fluid      DILUPBiCGStab:  Solving for h, Initial residual = 0.0005977335, Final residual = 4.3290634e-06, No Iterations 4
cold_plate DICPCG:  Solving for e, Initial residual = 0.00047089833, Final residual = 7.0224773e-08, No Iterations 12
cold_plate DICPCG:  Solving for e, Initial residual = 0.00044036956, Final residual = 6.2866049e-08, No Iterations 12
tim        DICPCG:  Solving for e, Initial residual = 0.0040290107, Final residual = 7.6131316e-08, No Iterations 5
tim        DICPCG:  Solving for e, Initial residual = 0.00057980896, Final residual = 6.2424279e-08, No Iterations 4
die        DICPCG:  Solving for e, Initial residual = 0.003309498, Final residual = 7.211839e-08, No Iterations 12
die        DICPCG:  Solving for e, Initial residual = 0.0024871569, Final residual = 7.972816e-08, No Iterations 11
fluid      GAMG:  Solving for p_rgh, Initial residual = 1.0062757e-06, Final residual = 8.6111301e-07, No Iterations 1
fluid      GAMG:  Solving for p_rgh, Initial residual = 1.2764191e-06, Final residual = 5.565701e-07, No Iterations 1
fluid      time step continuity errors : sum local = 0.13982551, global = -1.0409989e-05, cumulative = -7.5811237e-05
fluid      DILUPBiCGStab:  Solving for omega, Initial residual = 7.6389769e-08, Final residual = 7.6389769e-08, No Iterations 0
fluid      DILUPBiCGStab:  Solving for k, Initial residual = 9.8795056e-08, Final residual = 9.8795056e-08, No Iterations 0
[...]
cold_plate DICPCG:  Solving for e, Initial residual = 1.0780385e-05, Final residual = 9.1785816e-08, No Iterations 6
cold_plate DICPCG:  Solving for e, Initial residual = 1.0360266e-05, Final residual = 8.8400858e-08, No Iterations 6
tim        DICPCG:  Solving for e, Initial residual = 1.3189589e-05, Final residual = 6.5685416e-09, No Iterations 2
tim        DICPCG:  Solving for e, Initial residual = 1.9084111e-06, Final residual = 3.5189455e-08, No Iterations 1
die        DICPCG:  Solving for e, Initial residual = 6.3282811e-06, Final residual = 7.0848872e-08, No Iterations 5
die        DICPCG:  Solving for e, Initial residual = 4.6626907e-06, Final residual = 8.4738252e-08, No Iterations 4
fluid      GAMG:  Solving for p_rgh, Initial residual = 1.7146581e-06, Final residual = 5.7483352e-07, No Iterations 1
fluid      GAMG:  Solving for p_rgh, Initial residual = 1.0380786e-06, Final residual = 5.0479611e-07, No Iterations 2
fluid      time step continuity errors : sum local = 0.12681805, global = -2.7752758e-05, cumulative = -0.009938046
fluid      DILUPBiCGStab:  Solving for omega, Initial residual = 7.6403314e-08, Final residual = 7.6403314e-08, No Iterations 0
fluid      DILUPBiCGStab:  Solving for k, Initial residual = 9.7767269e-08, Final residual = 9.7767269e-08, No Iterations 0
           ExecutionTime = 45786.041 s  ClockTime = 48423 s
           
           Time = 6989s
           
fluid      DILUPBiCGStab:  Solving for h, Initial residual = 1.4170706e-05, Final residual = 1.1398093e-07, No Iterations 4
cold_plate DICPCG:  Solving for e, Initial residual = 1.0768489e-05, Final residual = 9.1677295e-08, No Iterations 6
cold_plate DICPCG:  Solving for e, Initial residual = 1.0348843e-05, Final residual = 8.8297451e-08, No Iterations 6
tim        DICPCG:  Solving for e, Initial residual = 1.3175275e-05, Final residual = 6.563973e-09, No Iterations 2
tim        DICPCG:  Solving for e, Initial residual = 1.9063411e-06, Final residual = 3.5152267e-08, No Iterations 1
die        DICPCG:  Solving for e, Initial residual = 6.321394e-06, Final residual = 7.0822768e-08, No Iterations 5
die        DICPCG:  Solving for e, Initial residual = 4.6576963e-06, Final residual = 8.4486517e-08, No Iterations 4
fluid      GAMG:  Solving for p_rgh, Initial residual = 1.2818978e-06, Final residual = 3.3105077e-07, No Iterations 1
fluid      GAMG:  Solving for p_rgh, Initial residual = 5.0701482e-07, Final residual = 5.0701482e-07, No Iterations 0
fluid      time step continuity errors : sum local = 0.12737545, global = 1.0572789e-05, cumulative = -0.0099274732
fluid      DILUPBiCGStab:  Solving for omega, Initial residual = 7.640313e-08, Final residual = 7.640313e-08, No Iterations 0
fluid      DILUPBiCGStab:  Solving for k, Initial residual = 9.8155764e-08, Final residual = 9.8155764e-08, No Iterations 0
           ExecutionTime = 45808.191 s  ClockTime = 48445 s
           
           Time = 6990s
           
fluid      DILUPBiCGStab:  Solving for h, Initial residual = 1.4160662e-05, Final residual = 1.2005243e-07, No Iterations 5
cold_plate DICPCG:  Solving for e, Initial residual = 1.0758518e-05, Final residual = 9.1592117e-08, No Iterations 6
cold_plate DICPCG:  Solving for e, Initial residual = 1.0339248e-05, Final residual = 8.8211058e-08, No Iterations 6
tim        DICPCG:  Solving for e, Initial residual = 1.316097e-05, Final residual = 6.5594008e-09, No Iterations 2
tim        DICPCG:  Solving for e, Initial residual = 1.9042724e-06, Final residual = 3.5115099e-08, No Iterations 1
die        DICPCG:  Solving for e, Initial residual = 6.3145986e-06, Final residual = 7.0692153e-08, No Iterations 5
die        DICPCG:  Solving for e, Initial residual = 4.652617e-06, Final residual = 8.4551563e-08, No Iterations 4
fluid      GAMG:  Solving for p_rgh, Initial residual = 8.46444e-07, Final residual = 8.46444e-07, No Iterations 0
fluid      GAMG:  Solving for p_rgh, Initial residual = 8.46444e-07, Final residual = 8.46444e-07, No Iterations 0
fluid      time step continuity errors : sum local = 0.212649, global = 6.0113988e-05, cumulative = -0.0098673592
fluid      DILUPBiCGStab:  Solving for omega, Initial residual = 7.6403473e-08, Final residual = 7.6403473e-08, No Iterations 0
fluid      DILUPBiCGStab:  Solving for k, Initial residual = 9.8362211e-08, Final residual = 9.8362211e-08, No Iterations 0
           ExecutionTime = 45830.114 s  ClockTime = 48467 s
           
           Time = 6991s
           
fluid      DILUPBiCGStab:  Solving for h, Initial residual = 1.4133229e-05, Final residual = 7.8993416e-08, No Iterations 4
cold_plate DICPCG:  Solving for e, Initial residual = 1.0746712e-05, Final residual = 9.1479701e-08, No Iterations 6
cold_plate DICPCG:  Solving for e, Initial residual = 1.0327915e-05, Final residual = 8.8107823e-08, No Iterations 6
tim        DICPCG:  Solving for e, Initial residual = 1.3146712e-05, Final residual = 6.5548404e-09, No Iterations 2
tim        DICPCG:  Solving for e, Initial residual = 1.9022104e-06, Final residual = 3.5078049e-08, No Iterations 1
die        DICPCG:  Solving for e, Initial residual = 6.3077269e-06, Final residual = 7.0666057e-08, No Iterations 5
die        DICPCG:  Solving for e, Initial residual = 4.6476335e-06, Final residual = 8.4300655e-08, No Iterations 4
fluid      GAMG:  Solving for p_rgh, Initial residual = 1.3093111e-06, Final residual = 6.1001961e-07, No Iterations 2
fluid      GAMG:  Solving for p_rgh, Initial residual = 1.7266359e-06, Final residual = 4.5524259e-07, No Iterations 1
fluid      time step continuity errors : sum local = 0.1143689, global = -8.9678843e-05, cumulative = -0.009957038
fluid      DILUPBiCGStab:  Solving for omega, Initial residual = 7.6402912e-08, Final residual = 7.6402912e-08, No Iterations 0
fluid      DILUPBiCGStab:  Solving for k, Initial residual = 9.8191453e-08, Final residual = 9.8191453e-08, No Iterations 0
           ExecutionTime = 45852.587 s  ClockTime = 48490 s
           
           Time = 6992s
           
fluid      DILUPBiCGStab:  Solving for h, Initial residual = 1.4124032e-05, Final residual = 8.8089404e-08, No Iterations 4
cold_plate DICPCG:  Solving for e, Initial residual = 1.0735913e-05, Final residual = 9.1384457e-08, No Iterations 6
cold_plate DICPCG:  Solving for e, Initial residual = 1.0317535e-05, Final residual = 8.8014068e-08, No Iterations 6
tim        DICPCG:  Solving for e, Initial residual = 1.3132462e-05, Final residual = 6.5502815e-09, No Iterations 2
tim        DICPCG:  Solving for e, Initial residual = 1.9001496e-06, Final residual = 3.5041009e-08, No Iterations 1
die        DICPCG:  Solving for e, Initial residual = 6.3009476e-06, Final residual = 7.0535828e-08, No Iterations 5
die        DICPCG:  Solving for e, Initial residual = 4.6425656e-06, Final residual = 8.4365357e-08, No Iterations 4
fluid      GAMG:  Solving for p_rgh, Initial residual = 1.1091951e-06, Final residual = 4.3735854e-07, No Iterations 1
fluid      GAMG:  Solving for p_rgh, Initial residual = 6.5677536e-07, Final residual = 6.5677536e-07, No Iterations 0
fluid      time step continuity errors : sum local = 0.16499922, global = 2.0981529e-05, cumulative = -0.0099360565
fluid      DILUPBiCGStab:  Solving for omega, Initial residual = 7.6403108e-08, Final residual = 7.6403108e-08, No Iterations 0
fluid      DILUPBiCGStab:  Solving for k, Initial residual = 9.8011765e-08, Final residual = 9.8011765e-08, No Iterations 0
           ExecutionTime = 45874.718 s  ClockTime = 48512 s
           
           Time = 6993s
           
fluid      DILUPBiCGStab:  Solving for h, Initial residual = 1.4103742e-05, Final residual = 1.2689095e-07, No Iterations 5
cold_plate DICPCG:  Solving for e, Initial residual = 1.0723534e-05, Final residual = 9.1268288e-08, No Iterations 6
cold_plate DICPCG:  Solving for e, Initial residual = 1.0305654e-05, Final residual = 8.7906155e-08, No Iterations 6
tim        DICPCG:  Solving for e, Initial residual = 1.3118219e-05, Final residual = 6.5457181e-09, No Iterations 2
tim        DICPCG:  Solving for e, Initial residual = 1.8980899e-06, Final residual = 3.5003984e-08, No Iterations 1
die        DICPCG:  Solving for e, Initial residual = 6.2940911e-06, Final residual = 7.0509742e-08, No Iterations 5
die        DICPCG:  Solving for e, Initial residual = 4.6375928e-06, Final residual = 8.4115267e-08, No Iterations 4
fluid      GAMG:  Solving for p_rgh, Initial residual = 1.0227266e-06, Final residual = 5.964677e-07, No Iterations 1
fluid      GAMG:  Solving for p_rgh, Initial residual = 8.9600111e-07, Final residual = 8.9600111e-07, No Iterations 0
fluid      time step continuity errors : sum local = 0.22509898, global = 0.00011619323, cumulative = -0.0098198633
fluid      DILUPBiCGStab:  Solving for omega, Initial residual = 7.6403475e-08, Final residual = 7.6403475e-08, No Iterations 0
fluid      DILUPBiCGStab:  Solving for k, Initial residual = 9.8342035e-08, Final residual = 9.8342035e-08, No Iterations 0
           ExecutionTime = 45897.164 s  ClockTime = 48534 s
           
           Time = 6994s
           
fluid      DILUPBiCGStab:  Solving for h, Initial residual = 1.4098087e-05, Final residual = 7.5113786e-08, No Iterations 4
cold_plate DICPCG:  Solving for e, Initial residual = 1.0712849e-05, Final residual = 9.1176263e-08, No Iterations 6
cold_plate DICPCG:  Solving for e, Initial residual = 1.0295381e-05, Final residual = 8.7813727e-08, No Iterations 6
tim        DICPCG:  Solving for e, Initial residual = 1.3103958e-05, Final residual = 6.5411433e-09, No Iterations 2
tim        DICPCG:  Solving for e, Initial residual = 1.8960278e-06, Final residual = 3.4966904e-08, No Iterations 1
die        DICPCG:  Solving for e, Initial residual = 6.2873247e-06, Final residual = 7.0379877e-08, No Iterations 5
die        DICPCG:  Solving for e, Initial residual = 4.6325348e-06, Final residual = 8.4179572e-08, No Iterations 4
fluid      GAMG:  Solving for p_rgh, Initial residual = 1.2353964e-06, Final residual = 8.7988498e-07, No Iterations 1
fluid      GAMG:  Solving for p_rgh, Initial residual = 1.3306917e-06, Final residual = 5.5165261e-07, No Iterations 1
fluid      time step continuity errors : sum local = 0.1385896, global = 6.4045945e-05, cumulative = -0.0097558173
fluid      DILUPBiCGStab:  Solving for omega, Initial residual = 7.6403426e-08, Final residual = 7.6403426e-08, No Iterations 0
fluid      DILUPBiCGStab:  Solving for k, Initial residual = 9.8074086e-08, Final residual = 9.8074086e-08, No Iterations 0
           ExecutionTime = 45919.879 s  ClockTime = 48557 s
           
           Time = 6995s
           
fluid      DILUPBiCGStab:  Solving for h, Initial residual = 1.407863e-05, Final residual = 1.0521448e-07, No Iterations 3
cold_plate DICPCG:  Solving for e, Initial residual = 1.070176e-05, Final residual = 9.1074969e-08, No Iterations 6
cold_plate DICPCG:  Solving for e, Initial residual = 1.0284728e-05, Final residual = 8.7717266e-08, No Iterations 6
tim        DICPCG:  Solving for e, Initial residual = 1.308973e-05, Final residual = 6.5365716e-09, No Iterations 2
tim        DICPCG:  Solving for e, Initial residual = 1.8939702e-06, Final residual = 3.4929906e-08, No Iterations 1
die        DICPCG:  Solving for e, Initial residual = 6.2804807e-06, Final residual = 7.0353774e-08, No Iterations 5
die        DICPCG:  Solving for e, Initial residual = 4.627571e-06, Final residual = 8.3930257e-08, No Iterations 4
fluid      GAMG:  Solving for p_rgh, Initial residual = 1.2948042e-06, Final residual = 5.6194143e-07, No Iterations 1
fluid      GAMG:  Solving for p_rgh, Initial residual = 9.3689104e-07, Final residual = 9.3689104e-07, No Iterations 0
fluid      time step continuity errors : sum local = 0.23537155, global = 5.0827684e-05, cumulative = -0.0097049897
fluid      DILUPBiCGStab:  Solving for omega, Initial residual = 7.6403567e-08, Final residual = 7.6403567e-08, No Iterations 0
fluid      DILUPBiCGStab:  Solving for k, Initial residual = 9.843159e-08, Final residual = 9.843159e-08, No Iterations 0
           ExecutionTime = 45941.617 s  ClockTime = 48579 s
           
           Time = 6996s
           
fluid      DILUPBiCGStab:  Solving for h, Initial residual = 1.4061498e-05, Final residual = 6.9402593e-08, No Iterations 4
cold_plate DICPCG:  Solving for e, Initial residual = 1.0690698e-05, Final residual = 9.097427e-08, No Iterations 6
cold_plate DICPCG:  Solving for e, Initial residual = 1.0274098e-05, Final residual = 8.762107e-08, No Iterations 6
tim        DICPCG:  Solving for e, Initial residual = 1.3075526e-05, Final residual = 6.5320046e-09, No Iterations 2
tim        DICPCG:  Solving for e, Initial residual = 1.8919161e-06, Final residual = 3.4892965e-08, No Iterations 1
die        DICPCG:  Solving for e, Initial residual = 6.2737275e-06, Final residual = 7.0224268e-08, No Iterations 5
die        DICPCG:  Solving for e, Initial residual = 4.6225224e-06, Final residual = 8.399419e-08, No Iterations 4
fluid      GAMG:  Solving for p_rgh, Initial residual = 1.2266543e-06, Final residual = 8.1531935e-07, No Iterations 1
fluid      GAMG:  Solving for p_rgh, Initial residual = 1.3680973e-06, Final residual = 5.5576057e-07, No Iterations 1
fluid      time step continuity errors : sum local = 0.13962159, global = 4.4283598e-05, cumulative = -0.0096607061
fluid      DILUPBiCGStab:  Solving for omega, Initial residual = 7.6403376e-08, Final residual = 7.6403376e-08, No Iterations 0
fluid      DILUPBiCGStab:  Solving for k, Initial residual = 9.8130434e-08, Final residual = 9.8130434e-08, No Iterations 0
           ExecutionTime = 45964.233 s  ClockTime = 48602 s
           
           Time = 6997s
           
fluid      DILUPBiCGStab:  Solving for h, Initial residual = 1.4045039e-05, Final residual = 1.2745597e-07, No Iterations 3
cold_plate DICPCG:  Solving for e, Initial residual = 1.0680606e-05, Final residual = 9.0885224e-08, No Iterations 6
cold_plate DICPCG:  Solving for e, Initial residual = 1.0264391e-05, Final residual = 8.7533232e-08, No Iterations 6
tim        DICPCG:  Solving for e, Initial residual = 1.3061356e-05, Final residual = 6.5274415e-09, No Iterations 2
tim        DICPCG:  Solving for e, Initial residual = 1.889867e-06, Final residual = 3.485611e-08, No Iterations 1
die        DICPCG:  Solving for e, Initial residual = 6.2668979e-06, Final residual = 7.019817e-08, No Iterations 5
die        DICPCG:  Solving for e, Initial residual = 4.6175683e-06, Final residual = 8.3745697e-08, No Iterations 4
fluid      GAMG:  Solving for p_rgh, Initial residual = 1.3047181e-06, Final residual = 5.2882449e-07, No Iterations 1
fluid      GAMG:  Solving for p_rgh, Initial residual = 9.3173265e-07, Final residual = 9.3173265e-07, No Iterations 0
fluid      time step continuity errors : sum local = 0.23407561, global = 5.0188175e-05, cumulative = -0.0096105179
fluid      DILUPBiCGStab:  Solving for omega, Initial residual = 7.6403373e-08, Final residual = 7.6403373e-08, No Iterations 0
fluid      DILUPBiCGStab:  Solving for k, Initial residual = 9.850852e-08, Final residual = 9.850852e-08, No Iterations 0
           ExecutionTime = 45985.98 s  ClockTime = 48623 s
           
           Time = 6998s
           
fluid      DILUPBiCGStab:  Solving for h, Initial residual = 1.4017293e-05, Final residual = 7.7124668e-08, No Iterations 4
cold_plate DICPCG:  Solving for e, Initial residual = 1.0668712e-05, Final residual = 9.0772271e-08, No Iterations 6
cold_plate DICPCG:  Solving for e, Initial residual = 1.0252974e-05, Final residual = 8.7429206e-08, No Iterations 6
tim        DICPCG:  Solving for e, Initial residual = 1.304722e-05, Final residual = 6.5228745e-09, No Iterations 2
tim        DICPCG:  Solving for e, Initial residual = 1.8878224e-06, Final residual = 3.4819333e-08, No Iterations 1
die        DICPCG:  Solving for e, Initial residual = 6.2601603e-06, Final residual = 7.0069054e-08, No Iterations 5
die        DICPCG:  Solving for e, Initial residual = 4.6125303e-06, Final residual = 8.3809302e-08, No Iterations 4
fluid      GAMG:  Solving for p_rgh, Initial residual = 1.2146123e-06, Final residual = 8.2799994e-07, No Iterations 1
fluid      GAMG:  Solving for p_rgh, Initial residual = 1.2977794e-06, Final residual = 5.9004121e-07, No Iterations 1
fluid      time step continuity errors : sum local = 0.14823379, global = -3.3291949e-05, cumulative = -0.0096438098
fluid      DILUPBiCGStab:  Solving for omega, Initial residual = 7.6403251e-08, Final residual = 7.6403251e-08, No Iterations 0
fluid      DILUPBiCGStab:  Solving for k, Initial residual = 9.8195692e-08, Final residual = 9.8195692e-08, No Iterations 0
           ExecutionTime = 46008.518 s  ClockTime = 48646 s
           
           Time = 6999s
           
fluid      DILUPBiCGStab:  Solving for h, Initial residual = 1.4007915e-05, Final residual = 9.0333346e-08, No Iterations 4
cold_plate DICPCG:  Solving for e, Initial residual = 1.0657807e-05, Final residual = 9.0676236e-08, No Iterations 6
cold_plate DICPCG:  Solving for e, Initial residual = 1.0242492e-05, Final residual = 8.7334591e-08, No Iterations 6
tim        DICPCG:  Solving for e, Initial residual = 1.3033081e-05, Final residual = 6.5183039e-09, No Iterations 2
tim        DICPCG:  Solving for e, Initial residual = 1.8857777e-06, Final residual = 3.4782544e-08, No Iterations 1
die        DICPCG:  Solving for e, Initial residual = 6.2533461e-06, Final residual = 7.0042976e-08, No Iterations 5
die        DICPCG:  Solving for e, Initial residual = 4.6075864e-06, Final residual = 8.3561639e-08, No Iterations 4
fluid      GAMG:  Solving for p_rgh, Initial residual = 1.3140738e-06, Final residual = 4.3336663e-07, No Iterations 1
fluid      GAMG:  Solving for p_rgh, Initial residual = 7.3464198e-07, Final residual = 7.3464198e-07, No Iterations 0
fluid      time step continuity errors : sum local = 0.18456128, global = -6.4093176e-05, cumulative = -0.009707903
fluid      DILUPBiCGStab:  Solving for omega, Initial residual = 7.6403029e-08, Final residual = 7.6403029e-08, No Iterations 0
fluid      DILUPBiCGStab:  Solving for k, Initial residual = 9.8590497e-08, Final residual = 9.8590497e-08, No Iterations 0
           ExecutionTime = 46030.534 s  ClockTime = 48668 s
           
           Time = 7000s
           
fluid      DILUPBiCGStab:  Solving for h, Initial residual = 1.3990833e-05, Final residual = 7.9750471e-08, No Iterations 4
cold_plate DICPCG:  Solving for e, Initial residual = 1.0645948e-05, Final residual = 9.0566696e-08, No Iterations 6
cold_plate DICPCG:  Solving for e, Initial residual = 1.0231108e-05, Final residual = 8.723145e-08, No Iterations 6
tim        DICPCG:  Solving for e, Initial residual = 1.3018939e-05, Final residual = 6.5137209e-09, No Iterations 2
tim        DICPCG:  Solving for e, Initial residual = 1.8837331e-06, Final residual = 3.474575e-08, No Iterations 1
die        DICPCG:  Solving for e, Initial residual = 6.2466222e-06, Final residual = 6.9914231e-08, No Iterations 5
die        DICPCG:  Solving for e, Initial residual = 4.602558e-06, Final residual = 8.3624869e-08, No Iterations 4
fluid      GAMG:  Solving for p_rgh, Initial residual = 9.8369307e-07, Final residual = 9.8369307e-07, No Iterations 0
fluid      GAMG:  Solving for p_rgh, Initial residual = 9.8369307e-07, Final residual = 9.8369307e-07, No Iterations 0
fluid      time step continuity errors : sum local = 0.24712943, global = -0.00012176979, cumulative = -0.0098296728
fluid      DILUPBiCGStab:  Solving for omega, Initial residual = 7.6403324e-08, Final residual = 7.6403324e-08, No Iterations 0
fluid      DILUPBiCGStab:  Solving for k, Initial residual = 9.8842454e-08, Final residual = 9.8842454e-08, No Iterations 0
           ExecutionTime = 46053.13 s  ClockTime = 48692 s
           
           End
           
           Finalising parallel run
